* SPICE3 file created from 5_bit_dac.ext - technology: sky130A

.subckt x5_bit_dac VCC VSS D0 VREFL D0_BUF VREFH D1_BUF D1 D2 D3 D4 D2_BUF D3_BUF
+ D4_BUF VOUT
X0 4_bit_dac_0[0]/3_bit_dac_0[0]/2_bit_dac_0[0]/VOUT D1_BUF 4_bit_dac_0[0]/3_bit_dac_0[0]/2_bit_dac_0[0]/switch2n_3v3_0/VOUTH VSS sky130_fd_pr__nfet_g5v0d10v5 ad=0.145 pd=1.58 as=0.145 ps=1.58 w=0.5 l=0.5
X1 4_bit_dac_0[0]/3_bit_dac_0[0]/2_bit_dac_0[0]/switch_n_3v3_v2_0/DX_ 4_bit_dac_0[0]/3_bit_dac_0[0]/2_bit_dac_0[0]/D1 VCC VCC sky130_fd_pr__pfet_g5v0d10v5 ad=0.29 pd=2.58 as=0.29 ps=2.58 w=1 l=0.5
X2 D1_BUF 4_bit_dac_0[0]/3_bit_dac_0[0]/2_bit_dac_0[0]/switch_n_3v3_v2_0/DX_ VCC VCC sky130_fd_pr__pfet_g5v0d10v5 ad=0.29 pd=2.58 as=0.29 ps=2.58 w=1 l=0.5
X3 4_bit_dac_0[0]/3_bit_dac_0[0]/2_bit_dac_0[0]/VOUT D1_BUF 4_bit_dac_0[0]/3_bit_dac_0[0]/2_bit_dac_0[0]/switch2n_3v3_0/VOUTL VCC sky130_fd_pr__pfet_g5v0d10v5 ad=0.29 pd=2.58 as=0.29 ps=2.58 w=1 l=0.5
X4 4_bit_dac_0[0]/3_bit_dac_0[0]/2_bit_dac_0[0]/switch_n_3v3_v2_0/DX_ 4_bit_dac_0[0]/3_bit_dac_0[0]/2_bit_dac_0[0]/D1 VSS VSS sky130_fd_pr__nfet_g5v0d10v5 ad=0.145 pd=1.58 as=0.145 ps=1.58 w=0.5 l=0.5
X5 4_bit_dac_0[0]/3_bit_dac_0[0]/2_bit_dac_0[0]/switch2n_3v3_0/VOUTL 4_bit_dac_0[0]/3_bit_dac_0[0]/2_bit_dac_0[0]/switch_n_3v3_v2_0/DX_ 4_bit_dac_0[0]/3_bit_dac_0[0]/2_bit_dac_0[0]/VOUT VSS sky130_fd_pr__nfet_g5v0d10v5 ad=0.145 pd=1.58 as=0.145 ps=1.58 w=0.5 l=0.5
X6 D1_BUF 4_bit_dac_0[0]/3_bit_dac_0[0]/2_bit_dac_0[0]/switch_n_3v3_v2_0/DX_ VSS VSS sky130_fd_pr__nfet_g5v0d10v5 ad=0.145 pd=1.58 as=0.145 ps=1.58 w=0.5 l=0.5
X7 4_bit_dac_0[0]/3_bit_dac_0[0]/2_bit_dac_0[0]/switch2n_3v3_0/VOUTH 4_bit_dac_0[0]/3_bit_dac_0[0]/2_bit_dac_0[0]/switch_n_3v3_v2_0/DX_ 4_bit_dac_0[0]/3_bit_dac_0[0]/2_bit_dac_0[0]/VOUT VCC sky130_fd_pr__pfet_g5v0d10v5 ad=0.29 pd=2.58 as=0.29 ps=2.58 w=1 l=0.5
X8 4_bit_dac_0[0]/3_bit_dac_0[0]/2_bit_dac_0[0]/switch2n_3v3_0/VOUTH 4_bit_dac_0[0]/3_bit_dac_0[0]/2_bit_dac_0[0]/switch2n_3v3_0/a_n6524_n498# 4_bit_dac_0[0]/3_bit_dac_0[0]/2_bit_dac_0[0]/switch2n_3v3_0/VREFH VCC sky130_fd_pr__pfet_g5v0d10v5 ad=0.29 pd=2.58 as=0.29 ps=2.58 w=1 l=0.5
X9 4_bit_dac_0[0]/3_bit_dac_0[0]/2_bit_dac_0[0]/switch2n_3v3_0/VREFH D0_BUF 4_bit_dac_0[0]/3_bit_dac_0[0]/2_bit_dac_0[0]/switch2n_3v3_0/VOUTH VSS sky130_fd_pr__nfet_g5v0d10v5 ad=0.145 pd=1.58 as=0.145 ps=1.58 w=0.5 l=0.5
X10 4_bit_dac_0[0]/3_bit_dac_0[0]/2_bit_dac_0[0]/switch2n_3v3_0/VREFH 4_bit_dac_0[0]/3_bit_dac_0[0]/2_bit_dac_0[0]/switch2n_3v3_0/R_H VSS sky130_fd_pr__res_generic_nd__hv w=0.42 l=2.1
X11 D0_BUF 4_bit_dac_0[0]/3_bit_dac_0[0]/2_bit_dac_0[0]/switch2n_3v3_0/a_n6524_n498# VSS VSS sky130_fd_pr__nfet_g5v0d10v5 ad=0.145 pd=1.58 as=0.145 ps=1.58 w=0.5 l=0.5
X12 4_bit_dac_0[0]/3_bit_dac_0[0]/2_bit_dac_0[1]/VREFH D0_BUF 4_bit_dac_0[0]/3_bit_dac_0[0]/2_bit_dac_0[0]/switch2n_3v3_0/VOUTL VCC sky130_fd_pr__pfet_g5v0d10v5 ad=0.29 pd=2.58 as=0.29 ps=2.58 w=1 l=0.5
X13 4_bit_dac_0[0]/3_bit_dac_0[0]/2_bit_dac_0[0]/switch2n_3v3_0/VREFH VREFH VSS sky130_fd_pr__res_generic_nd__hv w=0.42 l=2.1
X14 4_bit_dac_0[0]/3_bit_dac_0[0]/2_bit_dac_0[0]/switch2n_3v3_0/a_n6524_n498# 4_bit_dac_0[0]/3_bit_dac_0[0]/2_bit_dac_0[0]/D0 VSS VSS sky130_fd_pr__nfet_g5v0d10v5 ad=0.145 pd=1.58 as=0.145 ps=1.58 w=0.5 l=0.5
X15 4_bit_dac_0[0]/3_bit_dac_0[0]/2_bit_dac_0[0]/switch2n_3v3_0/VOUTL 4_bit_dac_0[0]/3_bit_dac_0[0]/2_bit_dac_0[0]/switch2n_3v3_0/a_n6524_n498# 4_bit_dac_0[0]/3_bit_dac_0[0]/2_bit_dac_0[1]/VREFH VSS sky130_fd_pr__nfet_g5v0d10v5 ad=0.145 pd=1.58 as=0.145 ps=1.58 w=0.5 l=0.5
X16 4_bit_dac_0[0]/3_bit_dac_0[0]/2_bit_dac_0[0]/switch2n_3v3_0/VOUTH 4_bit_dac_0[0]/3_bit_dac_0[0]/2_bit_dac_0[0]/switch2n_3v3_0/a_n6524_n498# 4_bit_dac_0[0]/3_bit_dac_0[0]/2_bit_dac_0[0]/switch2n_3v3_0/R_H VSS sky130_fd_pr__nfet_g5v0d10v5 ad=0.145 pd=1.58 as=0.145 ps=1.58 w=0.5 l=0.5
X17 4_bit_dac_0[0]/3_bit_dac_0[0]/2_bit_dac_0[0]/switch2n_3v3_0/R_H D0_BUF 4_bit_dac_0[0]/3_bit_dac_0[0]/2_bit_dac_0[0]/switch2n_3v3_0/VOUTH VCC sky130_fd_pr__pfet_g5v0d10v5 ad=0.29 pd=2.58 as=0.29 ps=2.58 w=1 l=0.5
X18 4_bit_dac_0[0]/3_bit_dac_0[0]/2_bit_dac_0[0]/switch2n_3v3_0/R_H 4_bit_dac_0[0]/3_bit_dac_0[0]/2_bit_dac_0[0]/switch2n_3v3_0/R_L VSS sky130_fd_pr__res_generic_nd__hv w=0.42 l=2.1
X19 4_bit_dac_0[0]/3_bit_dac_0[0]/2_bit_dac_0[0]/switch2n_3v3_0/R_L 4_bit_dac_0[0]/3_bit_dac_0[0]/2_bit_dac_0[1]/VREFH VSS sky130_fd_pr__res_generic_nd__hv w=0.42 l=2.1
X20 4_bit_dac_0[0]/3_bit_dac_0[0]/2_bit_dac_0[0]/switch2n_3v3_0/R_L D0_BUF 4_bit_dac_0[0]/3_bit_dac_0[0]/2_bit_dac_0[0]/switch2n_3v3_0/VOUTL VSS sky130_fd_pr__nfet_g5v0d10v5 ad=0.145 pd=1.58 as=0.145 ps=1.58 w=0.5 l=0.5
X21 D0_BUF 4_bit_dac_0[0]/3_bit_dac_0[0]/2_bit_dac_0[0]/switch2n_3v3_0/a_n6524_n498# VCC VCC sky130_fd_pr__pfet_g5v0d10v5 ad=0.29 pd=2.58 as=0.29 ps=2.58 w=1 l=0.5
X22 4_bit_dac_0[0]/3_bit_dac_0[0]/2_bit_dac_0[0]/switch2n_3v3_0/a_n6524_n498# 4_bit_dac_0[0]/3_bit_dac_0[0]/2_bit_dac_0[0]/D0 VCC VCC sky130_fd_pr__pfet_g5v0d10v5 ad=0.29 pd=2.58 as=0.29 ps=2.58 w=1 l=0.5
X23 4_bit_dac_0[0]/3_bit_dac_0[0]/2_bit_dac_0[0]/switch2n_3v3_0/VOUTL 4_bit_dac_0[0]/3_bit_dac_0[0]/2_bit_dac_0[0]/switch2n_3v3_0/a_n6524_n498# 4_bit_dac_0[0]/3_bit_dac_0[0]/2_bit_dac_0[0]/switch2n_3v3_0/R_L VCC sky130_fd_pr__pfet_g5v0d10v5 ad=0.29 pd=2.58 as=0.29 ps=2.58 w=1 l=0.5
X24 4_bit_dac_0[0]/3_bit_dac_0[0]/2_bit_dac_0[1]/VOUT 4_bit_dac_0[0]/3_bit_dac_0[0]/2_bit_dac_0[0]/D1 4_bit_dac_0[0]/3_bit_dac_0[0]/2_bit_dac_0[1]/switch2n_3v3_0/VOUTH VSS sky130_fd_pr__nfet_g5v0d10v5 ad=0.435 pd=4.74 as=0.435 ps=4.74 w=0.5 l=0.5
X25 4_bit_dac_0[0]/3_bit_dac_0[0]/2_bit_dac_0[1]/switch_n_3v3_v2_0/DX_ 4_bit_dac_0[0]/3_bit_dac_0[0]/D1 VCC VCC sky130_fd_pr__pfet_g5v0d10v5 ad=0.29 pd=2.58 as=13.3 ps=119 w=1 l=0.5
X26 4_bit_dac_0[0]/3_bit_dac_0[0]/2_bit_dac_0[0]/D1 4_bit_dac_0[0]/3_bit_dac_0[0]/2_bit_dac_0[1]/switch_n_3v3_v2_0/DX_ VCC VCC sky130_fd_pr__pfet_g5v0d10v5 ad=0.29 pd=2.58 as=0 ps=0 w=1 l=0.5
X27 4_bit_dac_0[0]/3_bit_dac_0[0]/2_bit_dac_0[1]/VOUT 4_bit_dac_0[0]/3_bit_dac_0[0]/2_bit_dac_0[0]/D1 4_bit_dac_0[0]/3_bit_dac_0[0]/2_bit_dac_0[1]/switch2n_3v3_0/VOUTL VCC sky130_fd_pr__pfet_g5v0d10v5 ad=0.87 pd=7.74 as=0.87 ps=7.74 w=1 l=0.5
X28 4_bit_dac_0[0]/3_bit_dac_0[0]/2_bit_dac_0[1]/switch_n_3v3_v2_0/DX_ 4_bit_dac_0[0]/3_bit_dac_0[0]/D1 VSS VSS sky130_fd_pr__nfet_g5v0d10v5 ad=0.145 pd=1.58 as=6.67 ps=72.7 w=0.5 l=0.5
X29 4_bit_dac_0[0]/3_bit_dac_0[0]/2_bit_dac_0[1]/switch2n_3v3_0/VOUTL 4_bit_dac_0[0]/3_bit_dac_0[0]/2_bit_dac_0[1]/switch_n_3v3_v2_0/DX_ 4_bit_dac_0[0]/3_bit_dac_0[0]/2_bit_dac_0[1]/VOUT VSS sky130_fd_pr__nfet_g5v0d10v5 ad=0.435 pd=4.74 as=0 ps=0 w=0.5 l=0.5
X30 4_bit_dac_0[0]/3_bit_dac_0[0]/2_bit_dac_0[0]/D1 4_bit_dac_0[0]/3_bit_dac_0[0]/2_bit_dac_0[1]/switch_n_3v3_v2_0/DX_ VSS VSS sky130_fd_pr__nfet_g5v0d10v5 ad=0.145 pd=1.58 as=0 ps=0 w=0.5 l=0.5
X31 4_bit_dac_0[0]/3_bit_dac_0[0]/2_bit_dac_0[1]/switch2n_3v3_0/VOUTH 4_bit_dac_0[0]/3_bit_dac_0[0]/2_bit_dac_0[1]/switch_n_3v3_v2_0/DX_ 4_bit_dac_0[0]/3_bit_dac_0[0]/2_bit_dac_0[1]/VOUT VCC sky130_fd_pr__pfet_g5v0d10v5 ad=0.87 pd=7.74 as=0 ps=0 w=1 l=0.5
X32 4_bit_dac_0[0]/3_bit_dac_0[0]/2_bit_dac_0[1]/switch2n_3v3_0/VOUTH 4_bit_dac_0[0]/3_bit_dac_0[0]/2_bit_dac_0[1]/switch2n_3v3_0/a_n6524_n498# 4_bit_dac_0[0]/3_bit_dac_0[0]/2_bit_dac_0[1]/switch2n_3v3_0/VREFH VCC sky130_fd_pr__pfet_g5v0d10v5 ad=0 pd=0 as=0.29 ps=2.58 w=1 l=0.5
X33 4_bit_dac_0[0]/3_bit_dac_0[0]/2_bit_dac_0[1]/switch2n_3v3_0/VREFH 4_bit_dac_0[0]/3_bit_dac_0[0]/2_bit_dac_0[0]/D0 4_bit_dac_0[0]/3_bit_dac_0[0]/2_bit_dac_0[1]/switch2n_3v3_0/VOUTH VSS sky130_fd_pr__nfet_g5v0d10v5 ad=0.578 pd=5.32 as=0 ps=0 w=0.5 l=0.5
X34 4_bit_dac_0[0]/3_bit_dac_0[0]/2_bit_dac_0[1]/switch2n_3v3_0/VREFH 4_bit_dac_0[0]/3_bit_dac_0[0]/2_bit_dac_0[1]/switch2n_3v3_0/R_H VSS sky130_fd_pr__res_generic_nd__hv w=0.42 l=2.1
X35 4_bit_dac_0[0]/3_bit_dac_0[0]/2_bit_dac_0[0]/D0 4_bit_dac_0[0]/3_bit_dac_0[0]/2_bit_dac_0[1]/switch2n_3v3_0/a_n6524_n498# VSS VSS sky130_fd_pr__nfet_g5v0d10v5 ad=0.145 pd=1.58 as=0 ps=0 w=0.5 l=0.5
X36 4_bit_dac_0[0]/3_bit_dac_0[1]/VREFH 4_bit_dac_0[0]/3_bit_dac_0[0]/2_bit_dac_0[0]/D0 4_bit_dac_0[0]/3_bit_dac_0[0]/2_bit_dac_0[1]/switch2n_3v3_0/VOUTL VCC sky130_fd_pr__pfet_g5v0d10v5 ad=0.29 pd=2.58 as=0 ps=0 w=1 l=0.5
X37 4_bit_dac_0[0]/3_bit_dac_0[0]/2_bit_dac_0[1]/switch2n_3v3_0/VREFH 4_bit_dac_0[0]/3_bit_dac_0[0]/2_bit_dac_0[1]/VREFH VSS sky130_fd_pr__res_generic_nd__hv w=0.42 l=2.1
X38 4_bit_dac_0[0]/3_bit_dac_0[0]/2_bit_dac_0[1]/switch2n_3v3_0/a_n6524_n498# 4_bit_dac_0[0]/3_bit_dac_0[0]/D0 VSS VSS sky130_fd_pr__nfet_g5v0d10v5 ad=0.145 pd=1.58 as=0 ps=0 w=0.5 l=0.5
X39 4_bit_dac_0[0]/3_bit_dac_0[0]/2_bit_dac_0[1]/switch2n_3v3_0/VOUTL 4_bit_dac_0[0]/3_bit_dac_0[0]/2_bit_dac_0[1]/switch2n_3v3_0/a_n6524_n498# 4_bit_dac_0[0]/3_bit_dac_0[1]/VREFH VSS sky130_fd_pr__nfet_g5v0d10v5 ad=0 pd=0 as=0.578 ps=5.32 w=0.5 l=0.5
X40 4_bit_dac_0[0]/3_bit_dac_0[0]/2_bit_dac_0[1]/switch2n_3v3_0/VOUTH 4_bit_dac_0[0]/3_bit_dac_0[0]/2_bit_dac_0[1]/switch2n_3v3_0/a_n6524_n498# 4_bit_dac_0[0]/3_bit_dac_0[0]/2_bit_dac_0[1]/switch2n_3v3_0/R_H VSS sky130_fd_pr__nfet_g5v0d10v5 ad=0 pd=0 as=0.578 ps=5.32 w=0.5 l=0.5
X41 4_bit_dac_0[0]/3_bit_dac_0[0]/2_bit_dac_0[1]/switch2n_3v3_0/R_H 4_bit_dac_0[0]/3_bit_dac_0[0]/2_bit_dac_0[0]/D0 4_bit_dac_0[0]/3_bit_dac_0[0]/2_bit_dac_0[1]/switch2n_3v3_0/VOUTH VCC sky130_fd_pr__pfet_g5v0d10v5 ad=0.29 pd=2.58 as=0 ps=0 w=1 l=0.5
X42 4_bit_dac_0[0]/3_bit_dac_0[0]/2_bit_dac_0[1]/switch2n_3v3_0/R_H 4_bit_dac_0[0]/3_bit_dac_0[0]/2_bit_dac_0[1]/switch2n_3v3_0/R_L VSS sky130_fd_pr__res_generic_nd__hv w=0.42 l=2.1
X43 4_bit_dac_0[0]/3_bit_dac_0[0]/2_bit_dac_0[1]/switch2n_3v3_0/R_L 4_bit_dac_0[0]/3_bit_dac_0[1]/VREFH VSS sky130_fd_pr__res_generic_nd__hv w=0.42 l=2.1
X44 4_bit_dac_0[0]/3_bit_dac_0[0]/2_bit_dac_0[1]/switch2n_3v3_0/R_L 4_bit_dac_0[0]/3_bit_dac_0[0]/2_bit_dac_0[0]/D0 4_bit_dac_0[0]/3_bit_dac_0[0]/2_bit_dac_0[1]/switch2n_3v3_0/VOUTL VSS sky130_fd_pr__nfet_g5v0d10v5 ad=0.578 pd=5.32 as=0 ps=0 w=0.5 l=0.5
X45 4_bit_dac_0[0]/3_bit_dac_0[0]/2_bit_dac_0[0]/D0 4_bit_dac_0[0]/3_bit_dac_0[0]/2_bit_dac_0[1]/switch2n_3v3_0/a_n6524_n498# VCC VCC sky130_fd_pr__pfet_g5v0d10v5 ad=0.29 pd=2.58 as=0 ps=0 w=1 l=0.5
X46 4_bit_dac_0[0]/3_bit_dac_0[0]/2_bit_dac_0[1]/switch2n_3v3_0/a_n6524_n498# 4_bit_dac_0[0]/3_bit_dac_0[0]/D0 VCC VCC sky130_fd_pr__pfet_g5v0d10v5 ad=0.29 pd=2.58 as=0 ps=0 w=1 l=0.5
X47 4_bit_dac_0[0]/3_bit_dac_0[0]/2_bit_dac_0[1]/switch2n_3v3_0/VOUTL 4_bit_dac_0[0]/3_bit_dac_0[0]/2_bit_dac_0[1]/switch2n_3v3_0/a_n6524_n498# 4_bit_dac_0[0]/3_bit_dac_0[0]/2_bit_dac_0[1]/switch2n_3v3_0/R_L VCC sky130_fd_pr__pfet_g5v0d10v5 ad=0 pd=0 as=0.29 ps=2.58 w=1 l=0.5
X48 4_bit_dac_0[0]/3_bit_dac_0[0]/VOUT D2_BUF 4_bit_dac_0[0]/3_bit_dac_0[0]/2_bit_dac_0[0]/VOUT VSS sky130_fd_pr__nfet_g5v0d10v5 ad=0.145 pd=1.58 as=0.145 ps=1.58 w=0.5 l=0.5
X49 4_bit_dac_0[0]/3_bit_dac_0[0]/switch_n_3v3_0/DX_ 4_bit_dac_0[0]/switch_n_3v3_0/D2 VCC VCC sky130_fd_pr__pfet_g5v0d10v5 ad=0.29 pd=2.58 as=0.29 ps=2.58 w=1 l=0.5
X50 D2_BUF 4_bit_dac_0[0]/3_bit_dac_0[0]/switch_n_3v3_0/DX_ VCC VCC sky130_fd_pr__pfet_g5v0d10v5 ad=0.29 pd=2.58 as=0.29 ps=2.58 w=1 l=0.5
X51 4_bit_dac_0[0]/3_bit_dac_0[0]/VOUT D2_BUF 4_bit_dac_0[0]/3_bit_dac_0[0]/2_bit_dac_0[1]/VOUT VCC sky130_fd_pr__pfet_g5v0d10v5 ad=0.29 pd=2.58 as=0.29 ps=2.58 w=1 l=0.5
X52 4_bit_dac_0[0]/3_bit_dac_0[0]/switch_n_3v3_0/DX_ 4_bit_dac_0[0]/switch_n_3v3_0/D2 VSS VSS sky130_fd_pr__nfet_g5v0d10v5 ad=0.145 pd=1.58 as=0.145 ps=1.58 w=0.5 l=0.5
X53 4_bit_dac_0[0]/3_bit_dac_0[0]/2_bit_dac_0[1]/VOUT 4_bit_dac_0[0]/3_bit_dac_0[0]/switch_n_3v3_0/DX_ 4_bit_dac_0[0]/3_bit_dac_0[0]/VOUT VSS sky130_fd_pr__nfet_g5v0d10v5 ad=0.145 pd=1.58 as=0.145 ps=1.58 w=0.5 l=0.5
X54 D2_BUF 4_bit_dac_0[0]/3_bit_dac_0[0]/switch_n_3v3_0/DX_ VSS VSS sky130_fd_pr__nfet_g5v0d10v5 ad=0.145 pd=1.58 as=0.145 ps=1.58 w=0.5 l=0.5
X55 4_bit_dac_0[0]/3_bit_dac_0[0]/2_bit_dac_0[0]/VOUT 4_bit_dac_0[0]/3_bit_dac_0[0]/switch_n_3v3_0/DX_ 4_bit_dac_0[0]/3_bit_dac_0[0]/VOUT VCC sky130_fd_pr__pfet_g5v0d10v5 ad=0.29 pd=2.58 as=0.29 ps=2.58 w=1 l=0.5
X56 4_bit_dac_0[0]/3_bit_dac_0[1]/2_bit_dac_0[0]/VOUT 4_bit_dac_0[0]/3_bit_dac_0[0]/D1 4_bit_dac_0[0]/3_bit_dac_0[1]/2_bit_dac_0[0]/switch2n_3v3_0/VOUTH VSS sky130_fd_pr__nfet_g5v0d10v5 ad=0.435 pd=4.74 as=0.435 ps=4.74 w=0.5 l=0.5
X57 4_bit_dac_0[0]/3_bit_dac_0[1]/2_bit_dac_0[0]/switch_n_3v3_v2_0/DX_ 4_bit_dac_0[0]/3_bit_dac_0[1]/2_bit_dac_0[0]/D1 VCC VCC sky130_fd_pr__pfet_g5v0d10v5 ad=0.29 pd=2.58 as=0 ps=0 w=1 l=0.5
X58 4_bit_dac_0[0]/3_bit_dac_0[0]/D1 4_bit_dac_0[0]/3_bit_dac_0[1]/2_bit_dac_0[0]/switch_n_3v3_v2_0/DX_ VCC VCC sky130_fd_pr__pfet_g5v0d10v5 ad=0.29 pd=2.58 as=0 ps=0 w=1 l=0.5
X59 4_bit_dac_0[0]/3_bit_dac_0[1]/2_bit_dac_0[0]/VOUT 4_bit_dac_0[0]/3_bit_dac_0[0]/D1 4_bit_dac_0[0]/3_bit_dac_0[1]/2_bit_dac_0[0]/switch2n_3v3_0/VOUTL VCC sky130_fd_pr__pfet_g5v0d10v5 ad=0.87 pd=7.74 as=0.87 ps=7.74 w=1 l=0.5
X60 4_bit_dac_0[0]/3_bit_dac_0[1]/2_bit_dac_0[0]/switch_n_3v3_v2_0/DX_ 4_bit_dac_0[0]/3_bit_dac_0[1]/2_bit_dac_0[0]/D1 VSS VSS sky130_fd_pr__nfet_g5v0d10v5 ad=0.145 pd=1.58 as=0 ps=0 w=0.5 l=0.5
X61 4_bit_dac_0[0]/3_bit_dac_0[1]/2_bit_dac_0[0]/switch2n_3v3_0/VOUTL 4_bit_dac_0[0]/3_bit_dac_0[1]/2_bit_dac_0[0]/switch_n_3v3_v2_0/DX_ 4_bit_dac_0[0]/3_bit_dac_0[1]/2_bit_dac_0[0]/VOUT VSS sky130_fd_pr__nfet_g5v0d10v5 ad=0.435 pd=4.74 as=0 ps=0 w=0.5 l=0.5
X62 4_bit_dac_0[0]/3_bit_dac_0[0]/D1 4_bit_dac_0[0]/3_bit_dac_0[1]/2_bit_dac_0[0]/switch_n_3v3_v2_0/DX_ VSS VSS sky130_fd_pr__nfet_g5v0d10v5 ad=0.145 pd=1.58 as=0 ps=0 w=0.5 l=0.5
X63 4_bit_dac_0[0]/3_bit_dac_0[1]/2_bit_dac_0[0]/switch2n_3v3_0/VOUTH 4_bit_dac_0[0]/3_bit_dac_0[1]/2_bit_dac_0[0]/switch_n_3v3_v2_0/DX_ 4_bit_dac_0[0]/3_bit_dac_0[1]/2_bit_dac_0[0]/VOUT VCC sky130_fd_pr__pfet_g5v0d10v5 ad=0.87 pd=7.74 as=0 ps=0 w=1 l=0.5
X64 4_bit_dac_0[0]/3_bit_dac_0[1]/2_bit_dac_0[0]/switch2n_3v3_0/VOUTH 4_bit_dac_0[0]/3_bit_dac_0[1]/2_bit_dac_0[0]/switch2n_3v3_0/a_n6524_n498# 4_bit_dac_0[0]/3_bit_dac_0[1]/2_bit_dac_0[0]/switch2n_3v3_0/VREFH VCC sky130_fd_pr__pfet_g5v0d10v5 ad=0 pd=0 as=0.29 ps=2.58 w=1 l=0.5
X65 4_bit_dac_0[0]/3_bit_dac_0[1]/2_bit_dac_0[0]/switch2n_3v3_0/VREFH 4_bit_dac_0[0]/3_bit_dac_0[0]/D0 4_bit_dac_0[0]/3_bit_dac_0[1]/2_bit_dac_0[0]/switch2n_3v3_0/VOUTH VSS sky130_fd_pr__nfet_g5v0d10v5 ad=0.578 pd=5.32 as=0 ps=0 w=0.5 l=0.5
X66 4_bit_dac_0[0]/3_bit_dac_0[1]/2_bit_dac_0[0]/switch2n_3v3_0/VREFH 4_bit_dac_0[0]/3_bit_dac_0[1]/2_bit_dac_0[0]/switch2n_3v3_0/R_H VSS sky130_fd_pr__res_generic_nd__hv w=0.42 l=2.1
X67 4_bit_dac_0[0]/3_bit_dac_0[0]/D0 4_bit_dac_0[0]/3_bit_dac_0[1]/2_bit_dac_0[0]/switch2n_3v3_0/a_n6524_n498# VSS VSS sky130_fd_pr__nfet_g5v0d10v5 ad=0.145 pd=1.58 as=0 ps=0 w=0.5 l=0.5
X68 4_bit_dac_0[0]/3_bit_dac_0[1]/2_bit_dac_0[1]/VREFH 4_bit_dac_0[0]/3_bit_dac_0[0]/D0 4_bit_dac_0[0]/3_bit_dac_0[1]/2_bit_dac_0[0]/switch2n_3v3_0/VOUTL VCC sky130_fd_pr__pfet_g5v0d10v5 ad=0.29 pd=2.58 as=0 ps=0 w=1 l=0.5
X69 4_bit_dac_0[0]/3_bit_dac_0[1]/2_bit_dac_0[0]/switch2n_3v3_0/VREFH 4_bit_dac_0[0]/3_bit_dac_0[1]/VREFH VSS sky130_fd_pr__res_generic_nd__hv w=0.42 l=2.1
X70 4_bit_dac_0[0]/3_bit_dac_0[1]/2_bit_dac_0[0]/switch2n_3v3_0/a_n6524_n498# 4_bit_dac_0[0]/3_bit_dac_0[1]/2_bit_dac_0[0]/D0 VSS VSS sky130_fd_pr__nfet_g5v0d10v5 ad=0.145 pd=1.58 as=0 ps=0 w=0.5 l=0.5
X71 4_bit_dac_0[0]/3_bit_dac_0[1]/2_bit_dac_0[0]/switch2n_3v3_0/VOUTL 4_bit_dac_0[0]/3_bit_dac_0[1]/2_bit_dac_0[0]/switch2n_3v3_0/a_n6524_n498# 4_bit_dac_0[0]/3_bit_dac_0[1]/2_bit_dac_0[1]/VREFH VSS sky130_fd_pr__nfet_g5v0d10v5 ad=0 pd=0 as=0.578 ps=5.32 w=0.5 l=0.5
X72 4_bit_dac_0[0]/3_bit_dac_0[1]/2_bit_dac_0[0]/switch2n_3v3_0/VOUTH 4_bit_dac_0[0]/3_bit_dac_0[1]/2_bit_dac_0[0]/switch2n_3v3_0/a_n6524_n498# 4_bit_dac_0[0]/3_bit_dac_0[1]/2_bit_dac_0[0]/switch2n_3v3_0/R_H VSS sky130_fd_pr__nfet_g5v0d10v5 ad=0 pd=0 as=0.578 ps=5.32 w=0.5 l=0.5
X73 4_bit_dac_0[0]/3_bit_dac_0[1]/2_bit_dac_0[0]/switch2n_3v3_0/R_H 4_bit_dac_0[0]/3_bit_dac_0[0]/D0 4_bit_dac_0[0]/3_bit_dac_0[1]/2_bit_dac_0[0]/switch2n_3v3_0/VOUTH VCC sky130_fd_pr__pfet_g5v0d10v5 ad=0.29 pd=2.58 as=0 ps=0 w=1 l=0.5
X74 4_bit_dac_0[0]/3_bit_dac_0[1]/2_bit_dac_0[0]/switch2n_3v3_0/R_H 4_bit_dac_0[0]/3_bit_dac_0[1]/2_bit_dac_0[0]/switch2n_3v3_0/R_L VSS sky130_fd_pr__res_generic_nd__hv w=0.42 l=2.1
X75 4_bit_dac_0[0]/3_bit_dac_0[1]/2_bit_dac_0[0]/switch2n_3v3_0/R_L 4_bit_dac_0[0]/3_bit_dac_0[1]/2_bit_dac_0[1]/VREFH VSS sky130_fd_pr__res_generic_nd__hv w=0.42 l=2.1
X76 4_bit_dac_0[0]/3_bit_dac_0[1]/2_bit_dac_0[0]/switch2n_3v3_0/R_L 4_bit_dac_0[0]/3_bit_dac_0[0]/D0 4_bit_dac_0[0]/3_bit_dac_0[1]/2_bit_dac_0[0]/switch2n_3v3_0/VOUTL VSS sky130_fd_pr__nfet_g5v0d10v5 ad=0.578 pd=5.32 as=0 ps=0 w=0.5 l=0.5
X77 4_bit_dac_0[0]/3_bit_dac_0[0]/D0 4_bit_dac_0[0]/3_bit_dac_0[1]/2_bit_dac_0[0]/switch2n_3v3_0/a_n6524_n498# VCC VCC sky130_fd_pr__pfet_g5v0d10v5 ad=0.29 pd=2.58 as=0 ps=0 w=1 l=0.5
X78 4_bit_dac_0[0]/3_bit_dac_0[1]/2_bit_dac_0[0]/switch2n_3v3_0/a_n6524_n498# 4_bit_dac_0[0]/3_bit_dac_0[1]/2_bit_dac_0[0]/D0 VCC VCC sky130_fd_pr__pfet_g5v0d10v5 ad=0.29 pd=2.58 as=0 ps=0 w=1 l=0.5
X79 4_bit_dac_0[0]/3_bit_dac_0[1]/2_bit_dac_0[0]/switch2n_3v3_0/VOUTL 4_bit_dac_0[0]/3_bit_dac_0[1]/2_bit_dac_0[0]/switch2n_3v3_0/a_n6524_n498# 4_bit_dac_0[0]/3_bit_dac_0[1]/2_bit_dac_0[0]/switch2n_3v3_0/R_L VCC sky130_fd_pr__pfet_g5v0d10v5 ad=0 pd=0 as=0.29 ps=2.58 w=1 l=0.5
X80 4_bit_dac_0[0]/3_bit_dac_0[1]/2_bit_dac_0[1]/VOUT 4_bit_dac_0[0]/3_bit_dac_0[1]/2_bit_dac_0[0]/D1 4_bit_dac_0[0]/3_bit_dac_0[1]/2_bit_dac_0[1]/switch2n_3v3_0/VOUTH VSS sky130_fd_pr__nfet_g5v0d10v5 ad=0.435 pd=4.74 as=0.435 ps=4.74 w=0.5 l=0.5
X81 4_bit_dac_0[0]/3_bit_dac_0[1]/2_bit_dac_0[1]/switch_n_3v3_v2_0/DX_ 4_bit_dac_0[0]/D1 VCC VCC sky130_fd_pr__pfet_g5v0d10v5 ad=0.29 pd=2.58 as=0 ps=0 w=1 l=0.5
X82 4_bit_dac_0[0]/3_bit_dac_0[1]/2_bit_dac_0[0]/D1 4_bit_dac_0[0]/3_bit_dac_0[1]/2_bit_dac_0[1]/switch_n_3v3_v2_0/DX_ VCC VCC sky130_fd_pr__pfet_g5v0d10v5 ad=0.29 pd=2.58 as=0 ps=0 w=1 l=0.5
X83 4_bit_dac_0[0]/3_bit_dac_0[1]/2_bit_dac_0[1]/VOUT 4_bit_dac_0[0]/3_bit_dac_0[1]/2_bit_dac_0[0]/D1 4_bit_dac_0[0]/3_bit_dac_0[1]/2_bit_dac_0[1]/switch2n_3v3_0/VOUTL VCC sky130_fd_pr__pfet_g5v0d10v5 ad=0.87 pd=7.74 as=0.87 ps=7.74 w=1 l=0.5
X84 4_bit_dac_0[0]/3_bit_dac_0[1]/2_bit_dac_0[1]/switch_n_3v3_v2_0/DX_ 4_bit_dac_0[0]/D1 VSS VSS sky130_fd_pr__nfet_g5v0d10v5 ad=0.145 pd=1.58 as=0 ps=0 w=0.5 l=0.5
X85 4_bit_dac_0[0]/3_bit_dac_0[1]/2_bit_dac_0[1]/switch2n_3v3_0/VOUTL 4_bit_dac_0[0]/3_bit_dac_0[1]/2_bit_dac_0[1]/switch_n_3v3_v2_0/DX_ 4_bit_dac_0[0]/3_bit_dac_0[1]/2_bit_dac_0[1]/VOUT VSS sky130_fd_pr__nfet_g5v0d10v5 ad=0.435 pd=4.74 as=0 ps=0 w=0.5 l=0.5
X86 4_bit_dac_0[0]/3_bit_dac_0[1]/2_bit_dac_0[0]/D1 4_bit_dac_0[0]/3_bit_dac_0[1]/2_bit_dac_0[1]/switch_n_3v3_v2_0/DX_ VSS VSS sky130_fd_pr__nfet_g5v0d10v5 ad=0.145 pd=1.58 as=0 ps=0 w=0.5 l=0.5
X87 4_bit_dac_0[0]/3_bit_dac_0[1]/2_bit_dac_0[1]/switch2n_3v3_0/VOUTH 4_bit_dac_0[0]/3_bit_dac_0[1]/2_bit_dac_0[1]/switch_n_3v3_v2_0/DX_ 4_bit_dac_0[0]/3_bit_dac_0[1]/2_bit_dac_0[1]/VOUT VCC sky130_fd_pr__pfet_g5v0d10v5 ad=0.87 pd=7.74 as=0 ps=0 w=1 l=0.5
X88 4_bit_dac_0[0]/3_bit_dac_0[1]/2_bit_dac_0[1]/switch2n_3v3_0/VOUTH 4_bit_dac_0[0]/3_bit_dac_0[1]/2_bit_dac_0[1]/switch2n_3v3_0/a_n6524_n498# 4_bit_dac_0[0]/3_bit_dac_0[1]/2_bit_dac_0[1]/switch2n_3v3_0/VREFH VCC sky130_fd_pr__pfet_g5v0d10v5 ad=0 pd=0 as=0.29 ps=2.58 w=1 l=0.5
X89 4_bit_dac_0[0]/3_bit_dac_0[1]/2_bit_dac_0[1]/switch2n_3v3_0/VREFH 4_bit_dac_0[0]/3_bit_dac_0[1]/2_bit_dac_0[0]/D0 4_bit_dac_0[0]/3_bit_dac_0[1]/2_bit_dac_0[1]/switch2n_3v3_0/VOUTH VSS sky130_fd_pr__nfet_g5v0d10v5 ad=0.578 pd=5.32 as=0 ps=0 w=0.5 l=0.5
X90 4_bit_dac_0[0]/3_bit_dac_0[1]/2_bit_dac_0[1]/switch2n_3v3_0/VREFH 4_bit_dac_0[0]/3_bit_dac_0[1]/2_bit_dac_0[1]/switch2n_3v3_0/R_H VSS sky130_fd_pr__res_generic_nd__hv w=0.42 l=2.1
X91 4_bit_dac_0[0]/3_bit_dac_0[1]/2_bit_dac_0[0]/D0 4_bit_dac_0[0]/3_bit_dac_0[1]/2_bit_dac_0[1]/switch2n_3v3_0/a_n6524_n498# VSS VSS sky130_fd_pr__nfet_g5v0d10v5 ad=0.145 pd=1.58 as=0 ps=0 w=0.5 l=0.5
X92 4_bit_dac_0[1]/VREFH 4_bit_dac_0[0]/3_bit_dac_0[1]/2_bit_dac_0[0]/D0 4_bit_dac_0[0]/3_bit_dac_0[1]/2_bit_dac_0[1]/switch2n_3v3_0/VOUTL VCC sky130_fd_pr__pfet_g5v0d10v5 ad=0.29 pd=2.58 as=0 ps=0 w=1 l=0.5
X93 4_bit_dac_0[0]/3_bit_dac_0[1]/2_bit_dac_0[1]/switch2n_3v3_0/VREFH 4_bit_dac_0[0]/3_bit_dac_0[1]/2_bit_dac_0[1]/VREFH VSS sky130_fd_pr__res_generic_nd__hv w=0.42 l=2.1
X94 4_bit_dac_0[0]/3_bit_dac_0[1]/2_bit_dac_0[1]/switch2n_3v3_0/a_n6524_n498# 4_bit_dac_0[0]/D0 VSS VSS sky130_fd_pr__nfet_g5v0d10v5 ad=0.145 pd=1.58 as=0 ps=0 w=0.5 l=0.5
X95 4_bit_dac_0[0]/3_bit_dac_0[1]/2_bit_dac_0[1]/switch2n_3v3_0/VOUTL 4_bit_dac_0[0]/3_bit_dac_0[1]/2_bit_dac_0[1]/switch2n_3v3_0/a_n6524_n498# 4_bit_dac_0[1]/VREFH VSS sky130_fd_pr__nfet_g5v0d10v5 ad=0 pd=0 as=0.578 ps=5.32 w=0.5 l=0.5
X96 4_bit_dac_0[0]/3_bit_dac_0[1]/2_bit_dac_0[1]/switch2n_3v3_0/VOUTH 4_bit_dac_0[0]/3_bit_dac_0[1]/2_bit_dac_0[1]/switch2n_3v3_0/a_n6524_n498# 4_bit_dac_0[0]/3_bit_dac_0[1]/2_bit_dac_0[1]/switch2n_3v3_0/R_H VSS sky130_fd_pr__nfet_g5v0d10v5 ad=0 pd=0 as=0.578 ps=5.32 w=0.5 l=0.5
X97 4_bit_dac_0[0]/3_bit_dac_0[1]/2_bit_dac_0[1]/switch2n_3v3_0/R_H 4_bit_dac_0[0]/3_bit_dac_0[1]/2_bit_dac_0[0]/D0 4_bit_dac_0[0]/3_bit_dac_0[1]/2_bit_dac_0[1]/switch2n_3v3_0/VOUTH VCC sky130_fd_pr__pfet_g5v0d10v5 ad=0.29 pd=2.58 as=0 ps=0 w=1 l=0.5
X98 4_bit_dac_0[0]/3_bit_dac_0[1]/2_bit_dac_0[1]/switch2n_3v3_0/R_H 4_bit_dac_0[0]/3_bit_dac_0[1]/2_bit_dac_0[1]/switch2n_3v3_0/R_L VSS sky130_fd_pr__res_generic_nd__hv w=0.42 l=2.1
X99 4_bit_dac_0[0]/3_bit_dac_0[1]/2_bit_dac_0[1]/switch2n_3v3_0/R_L 4_bit_dac_0[1]/VREFH VSS sky130_fd_pr__res_generic_nd__hv w=0.42 l=2.1
X100 4_bit_dac_0[0]/3_bit_dac_0[1]/2_bit_dac_0[1]/switch2n_3v3_0/R_L 4_bit_dac_0[0]/3_bit_dac_0[1]/2_bit_dac_0[0]/D0 4_bit_dac_0[0]/3_bit_dac_0[1]/2_bit_dac_0[1]/switch2n_3v3_0/VOUTL VSS sky130_fd_pr__nfet_g5v0d10v5 ad=0.578 pd=5.32 as=0 ps=0 w=0.5 l=0.5
X101 4_bit_dac_0[0]/3_bit_dac_0[1]/2_bit_dac_0[0]/D0 4_bit_dac_0[0]/3_bit_dac_0[1]/2_bit_dac_0[1]/switch2n_3v3_0/a_n6524_n498# VCC VCC sky130_fd_pr__pfet_g5v0d10v5 ad=0.29 pd=2.58 as=0 ps=0 w=1 l=0.5
X102 4_bit_dac_0[0]/3_bit_dac_0[1]/2_bit_dac_0[1]/switch2n_3v3_0/a_n6524_n498# 4_bit_dac_0[0]/D0 VCC VCC sky130_fd_pr__pfet_g5v0d10v5 ad=0.29 pd=2.58 as=0 ps=0 w=1 l=0.5
X103 4_bit_dac_0[0]/3_bit_dac_0[1]/2_bit_dac_0[1]/switch2n_3v3_0/VOUTL 4_bit_dac_0[0]/3_bit_dac_0[1]/2_bit_dac_0[1]/switch2n_3v3_0/a_n6524_n498# 4_bit_dac_0[0]/3_bit_dac_0[1]/2_bit_dac_0[1]/switch2n_3v3_0/R_L VCC sky130_fd_pr__pfet_g5v0d10v5 ad=0 pd=0 as=0.29 ps=2.58 w=1 l=0.5
X104 4_bit_dac_0[0]/3_bit_dac_0[1]/VOUT 4_bit_dac_0[0]/switch_n_3v3_0/D2 4_bit_dac_0[0]/3_bit_dac_0[1]/2_bit_dac_0[0]/VOUT VSS sky130_fd_pr__nfet_g5v0d10v5 ad=0.435 pd=4.74 as=0 ps=0 w=0.5 l=0.5
X105 4_bit_dac_0[0]/3_bit_dac_0[1]/switch_n_3v3_0/DX_ switch_n_3v3_0/D2 VCC VCC sky130_fd_pr__pfet_g5v0d10v5 ad=0.29 pd=2.58 as=0 ps=0 w=1 l=0.5
X106 4_bit_dac_0[0]/switch_n_3v3_0/D2 4_bit_dac_0[0]/3_bit_dac_0[1]/switch_n_3v3_0/DX_ VCC VCC sky130_fd_pr__pfet_g5v0d10v5 ad=0.29 pd=2.58 as=0 ps=0 w=1 l=0.5
X107 4_bit_dac_0[0]/3_bit_dac_0[1]/VOUT 4_bit_dac_0[0]/switch_n_3v3_0/D2 4_bit_dac_0[0]/3_bit_dac_0[1]/2_bit_dac_0[1]/VOUT VCC sky130_fd_pr__pfet_g5v0d10v5 ad=0.87 pd=7.74 as=0 ps=0 w=1 l=0.5
X108 4_bit_dac_0[0]/3_bit_dac_0[1]/switch_n_3v3_0/DX_ switch_n_3v3_0/D2 VSS VSS sky130_fd_pr__nfet_g5v0d10v5 ad=0.145 pd=1.58 as=0 ps=0 w=0.5 l=0.5
X109 4_bit_dac_0[0]/3_bit_dac_0[1]/2_bit_dac_0[1]/VOUT 4_bit_dac_0[0]/3_bit_dac_0[1]/switch_n_3v3_0/DX_ 4_bit_dac_0[0]/3_bit_dac_0[1]/VOUT VSS sky130_fd_pr__nfet_g5v0d10v5 ad=0 pd=0 as=0 ps=0 w=0.5 l=0.5
X110 4_bit_dac_0[0]/switch_n_3v3_0/D2 4_bit_dac_0[0]/3_bit_dac_0[1]/switch_n_3v3_0/DX_ VSS VSS sky130_fd_pr__nfet_g5v0d10v5 ad=0.145 pd=1.58 as=0 ps=0 w=0.5 l=0.5
X111 4_bit_dac_0[0]/3_bit_dac_0[1]/2_bit_dac_0[0]/VOUT 4_bit_dac_0[0]/3_bit_dac_0[1]/switch_n_3v3_0/DX_ 4_bit_dac_0[0]/3_bit_dac_0[1]/VOUT VCC sky130_fd_pr__pfet_g5v0d10v5 ad=0 pd=0 as=0 ps=0 w=1 l=0.5
X112 4_bit_dac_0[0]/VOUT D3_BUF 4_bit_dac_0[0]/3_bit_dac_0[0]/VOUT VSS sky130_fd_pr__nfet_g5v0d10v5 ad=0.435 pd=4.74 as=0.435 ps=4.74 w=0.5 l=0.5
X113 4_bit_dac_0[0]/switch_n_3v3_0/DX_ switch_n_3v3_0/D3 VCC VCC sky130_fd_pr__pfet_g5v0d10v5 ad=0.29 pd=2.58 as=0 ps=0 w=1 l=0.5
X114 D3_BUF 4_bit_dac_0[0]/switch_n_3v3_0/DX_ VCC VCC sky130_fd_pr__pfet_g5v0d10v5 ad=0.29 pd=2.58 as=0 ps=0 w=1 l=0.5
X115 4_bit_dac_0[0]/VOUT D3_BUF 4_bit_dac_0[0]/3_bit_dac_0[1]/VOUT VCC sky130_fd_pr__pfet_g5v0d10v5 ad=0.87 pd=7.74 as=0 ps=0 w=1 l=0.5
X116 4_bit_dac_0[0]/switch_n_3v3_0/DX_ switch_n_3v3_0/D3 VSS VSS sky130_fd_pr__nfet_g5v0d10v5 ad=0.145 pd=1.58 as=0 ps=0 w=0.5 l=0.5
X117 4_bit_dac_0[0]/3_bit_dac_0[1]/VOUT 4_bit_dac_0[0]/switch_n_3v3_0/DX_ 4_bit_dac_0[0]/VOUT VSS sky130_fd_pr__nfet_g5v0d10v5 ad=0 pd=0 as=0 ps=0 w=0.5 l=0.5
X118 D3_BUF 4_bit_dac_0[0]/switch_n_3v3_0/DX_ VSS VSS sky130_fd_pr__nfet_g5v0d10v5 ad=0.145 pd=1.58 as=0 ps=0 w=0.5 l=0.5
X119 4_bit_dac_0[0]/3_bit_dac_0[0]/VOUT 4_bit_dac_0[0]/switch_n_3v3_0/DX_ 4_bit_dac_0[0]/VOUT VCC sky130_fd_pr__pfet_g5v0d10v5 ad=0.87 pd=7.74 as=0 ps=0 w=1 l=0.5
X120 4_bit_dac_0[1]/3_bit_dac_0[0]/2_bit_dac_0[0]/VOUT 4_bit_dac_0[0]/D1 4_bit_dac_0[1]/3_bit_dac_0[0]/2_bit_dac_0[0]/switch2n_3v3_0/VOUTH VSS sky130_fd_pr__nfet_g5v0d10v5 ad=0.435 pd=4.74 as=0.435 ps=4.74 w=0.5 l=0.5
X121 4_bit_dac_0[1]/3_bit_dac_0[0]/2_bit_dac_0[0]/switch_n_3v3_v2_0/DX_ 4_bit_dac_0[1]/3_bit_dac_0[0]/2_bit_dac_0[0]/D1 VCC VCC sky130_fd_pr__pfet_g5v0d10v5 ad=0.29 pd=2.58 as=0 ps=0 w=1 l=0.5
X122 4_bit_dac_0[0]/D1 4_bit_dac_0[1]/3_bit_dac_0[0]/2_bit_dac_0[0]/switch_n_3v3_v2_0/DX_ VCC VCC sky130_fd_pr__pfet_g5v0d10v5 ad=0.29 pd=2.58 as=0 ps=0 w=1 l=0.5
X123 4_bit_dac_0[1]/3_bit_dac_0[0]/2_bit_dac_0[0]/VOUT 4_bit_dac_0[0]/D1 4_bit_dac_0[1]/3_bit_dac_0[0]/2_bit_dac_0[0]/switch2n_3v3_0/VOUTL VCC sky130_fd_pr__pfet_g5v0d10v5 ad=0.87 pd=7.74 as=0.87 ps=7.74 w=1 l=0.5
X124 4_bit_dac_0[1]/3_bit_dac_0[0]/2_bit_dac_0[0]/switch_n_3v3_v2_0/DX_ 4_bit_dac_0[1]/3_bit_dac_0[0]/2_bit_dac_0[0]/D1 VSS VSS sky130_fd_pr__nfet_g5v0d10v5 ad=0.145 pd=1.58 as=0 ps=0 w=0.5 l=0.5
X125 4_bit_dac_0[1]/3_bit_dac_0[0]/2_bit_dac_0[0]/switch2n_3v3_0/VOUTL 4_bit_dac_0[1]/3_bit_dac_0[0]/2_bit_dac_0[0]/switch_n_3v3_v2_0/DX_ 4_bit_dac_0[1]/3_bit_dac_0[0]/2_bit_dac_0[0]/VOUT VSS sky130_fd_pr__nfet_g5v0d10v5 ad=0.435 pd=4.74 as=0 ps=0 w=0.5 l=0.5
X126 4_bit_dac_0[0]/D1 4_bit_dac_0[1]/3_bit_dac_0[0]/2_bit_dac_0[0]/switch_n_3v3_v2_0/DX_ VSS VSS sky130_fd_pr__nfet_g5v0d10v5 ad=0.145 pd=1.58 as=0 ps=0 w=0.5 l=0.5
X127 4_bit_dac_0[1]/3_bit_dac_0[0]/2_bit_dac_0[0]/switch2n_3v3_0/VOUTH 4_bit_dac_0[1]/3_bit_dac_0[0]/2_bit_dac_0[0]/switch_n_3v3_v2_0/DX_ 4_bit_dac_0[1]/3_bit_dac_0[0]/2_bit_dac_0[0]/VOUT VCC sky130_fd_pr__pfet_g5v0d10v5 ad=0.87 pd=7.74 as=0 ps=0 w=1 l=0.5
X128 4_bit_dac_0[1]/3_bit_dac_0[0]/2_bit_dac_0[0]/switch2n_3v3_0/VOUTH 4_bit_dac_0[1]/3_bit_dac_0[0]/2_bit_dac_0[0]/switch2n_3v3_0/a_n6524_n498# 4_bit_dac_0[1]/3_bit_dac_0[0]/2_bit_dac_0[0]/switch2n_3v3_0/VREFH VCC sky130_fd_pr__pfet_g5v0d10v5 ad=0 pd=0 as=0.29 ps=2.58 w=1 l=0.5
X129 4_bit_dac_0[1]/3_bit_dac_0[0]/2_bit_dac_0[0]/switch2n_3v3_0/VREFH 4_bit_dac_0[0]/D0 4_bit_dac_0[1]/3_bit_dac_0[0]/2_bit_dac_0[0]/switch2n_3v3_0/VOUTH VSS sky130_fd_pr__nfet_g5v0d10v5 ad=0.578 pd=5.32 as=0 ps=0 w=0.5 l=0.5
X130 4_bit_dac_0[1]/3_bit_dac_0[0]/2_bit_dac_0[0]/switch2n_3v3_0/VREFH 4_bit_dac_0[1]/3_bit_dac_0[0]/2_bit_dac_0[0]/switch2n_3v3_0/R_H VSS sky130_fd_pr__res_generic_nd__hv w=0.42 l=2.1
X131 4_bit_dac_0[0]/D0 4_bit_dac_0[1]/3_bit_dac_0[0]/2_bit_dac_0[0]/switch2n_3v3_0/a_n6524_n498# VSS VSS sky130_fd_pr__nfet_g5v0d10v5 ad=0.145 pd=1.58 as=0 ps=0 w=0.5 l=0.5
X132 4_bit_dac_0[1]/3_bit_dac_0[0]/2_bit_dac_0[1]/VREFH 4_bit_dac_0[0]/D0 4_bit_dac_0[1]/3_bit_dac_0[0]/2_bit_dac_0[0]/switch2n_3v3_0/VOUTL VCC sky130_fd_pr__pfet_g5v0d10v5 ad=0.29 pd=2.58 as=0 ps=0 w=1 l=0.5
X133 4_bit_dac_0[1]/3_bit_dac_0[0]/2_bit_dac_0[0]/switch2n_3v3_0/VREFH 4_bit_dac_0[1]/VREFH VSS sky130_fd_pr__res_generic_nd__hv w=0.42 l=2.1
X134 4_bit_dac_0[1]/3_bit_dac_0[0]/2_bit_dac_0[0]/switch2n_3v3_0/a_n6524_n498# 4_bit_dac_0[1]/3_bit_dac_0[0]/2_bit_dac_0[0]/D0 VSS VSS sky130_fd_pr__nfet_g5v0d10v5 ad=0.145 pd=1.58 as=0 ps=0 w=0.5 l=0.5
X135 4_bit_dac_0[1]/3_bit_dac_0[0]/2_bit_dac_0[0]/switch2n_3v3_0/VOUTL 4_bit_dac_0[1]/3_bit_dac_0[0]/2_bit_dac_0[0]/switch2n_3v3_0/a_n6524_n498# 4_bit_dac_0[1]/3_bit_dac_0[0]/2_bit_dac_0[1]/VREFH VSS sky130_fd_pr__nfet_g5v0d10v5 ad=0 pd=0 as=0.578 ps=5.32 w=0.5 l=0.5
X136 4_bit_dac_0[1]/3_bit_dac_0[0]/2_bit_dac_0[0]/switch2n_3v3_0/VOUTH 4_bit_dac_0[1]/3_bit_dac_0[0]/2_bit_dac_0[0]/switch2n_3v3_0/a_n6524_n498# 4_bit_dac_0[1]/3_bit_dac_0[0]/2_bit_dac_0[0]/switch2n_3v3_0/R_H VSS sky130_fd_pr__nfet_g5v0d10v5 ad=0 pd=0 as=0.578 ps=5.32 w=0.5 l=0.5
X137 4_bit_dac_0[1]/3_bit_dac_0[0]/2_bit_dac_0[0]/switch2n_3v3_0/R_H 4_bit_dac_0[0]/D0 4_bit_dac_0[1]/3_bit_dac_0[0]/2_bit_dac_0[0]/switch2n_3v3_0/VOUTH VCC sky130_fd_pr__pfet_g5v0d10v5 ad=0.29 pd=2.58 as=0 ps=0 w=1 l=0.5
X138 4_bit_dac_0[1]/3_bit_dac_0[0]/2_bit_dac_0[0]/switch2n_3v3_0/R_H 4_bit_dac_0[1]/3_bit_dac_0[0]/2_bit_dac_0[0]/switch2n_3v3_0/R_L VSS sky130_fd_pr__res_generic_nd__hv w=0.42 l=2.1
X139 4_bit_dac_0[1]/3_bit_dac_0[0]/2_bit_dac_0[0]/switch2n_3v3_0/R_L 4_bit_dac_0[1]/3_bit_dac_0[0]/2_bit_dac_0[1]/VREFH VSS sky130_fd_pr__res_generic_nd__hv w=0.42 l=2.1
X140 4_bit_dac_0[1]/3_bit_dac_0[0]/2_bit_dac_0[0]/switch2n_3v3_0/R_L 4_bit_dac_0[0]/D0 4_bit_dac_0[1]/3_bit_dac_0[0]/2_bit_dac_0[0]/switch2n_3v3_0/VOUTL VSS sky130_fd_pr__nfet_g5v0d10v5 ad=0.578 pd=5.32 as=0 ps=0 w=0.5 l=0.5
X141 4_bit_dac_0[0]/D0 4_bit_dac_0[1]/3_bit_dac_0[0]/2_bit_dac_0[0]/switch2n_3v3_0/a_n6524_n498# VCC VCC sky130_fd_pr__pfet_g5v0d10v5 ad=0.29 pd=2.58 as=0 ps=0 w=1 l=0.5
X142 4_bit_dac_0[1]/3_bit_dac_0[0]/2_bit_dac_0[0]/switch2n_3v3_0/a_n6524_n498# 4_bit_dac_0[1]/3_bit_dac_0[0]/2_bit_dac_0[0]/D0 VCC VCC sky130_fd_pr__pfet_g5v0d10v5 ad=0.29 pd=2.58 as=0 ps=0 w=1 l=0.5
X143 4_bit_dac_0[1]/3_bit_dac_0[0]/2_bit_dac_0[0]/switch2n_3v3_0/VOUTL 4_bit_dac_0[1]/3_bit_dac_0[0]/2_bit_dac_0[0]/switch2n_3v3_0/a_n6524_n498# 4_bit_dac_0[1]/3_bit_dac_0[0]/2_bit_dac_0[0]/switch2n_3v3_0/R_L VCC sky130_fd_pr__pfet_g5v0d10v5 ad=0 pd=0 as=0.29 ps=2.58 w=1 l=0.5