* SPICE3 file created from 6_bit_dac.ext - technology: sky130A

.subckt x6_bit_dac VCC VSS D0 VREFL D1 D2 D3 D4 D5 D0_BUF VREFH D1_BUF D2_BUF D3_BUF
+ D4_BUF D5_BUF VOUT
X0 VOUT D5_BUF 5_bit_dac_0[0]/VOUT VSS sky130_fd_pr__nfet_g5v0d10v5 ad=0.145 pd=1.58 as=0.145 ps=1.58 w=0.5 l=0.5
X1 switch_n_3v3_0/DX_ D5 VCC VCC sky130_fd_pr__pfet_g5v0d10v5 ad=0.29 pd=2.58 as=0.29 ps=2.58 w=1 l=0.5
X2 D5_BUF switch_n_3v3_0/DX_ VCC VCC sky130_fd_pr__pfet_g5v0d10v5 ad=0.29 pd=2.58 as=0.29 ps=2.58 w=1 l=0.5
X3 VOUT D5_BUF 5_bit_dac_0[1]/VOUT VCC sky130_fd_pr__pfet_g5v0d10v5 ad=0.29 pd=2.58 as=0.29 ps=2.58 w=1 l=0.5
X4 switch_n_3v3_0/DX_ D5 VSS VSS sky130_fd_pr__nfet_g5v0d10v5 ad=0.145 pd=1.58 as=0.145 ps=1.58 w=0.5 l=0.5
X5 5_bit_dac_0[1]/VOUT switch_n_3v3_0/DX_ VOUT VSS sky130_fd_pr__nfet_g5v0d10v5 ad=0.145 pd=1.58 as=0.145 ps=1.58 w=0.5 l=0.5
X6 D5_BUF switch_n_3v3_0/DX_ VSS VSS sky130_fd_pr__nfet_g5v0d10v5 ad=0.145 pd=1.58 as=0.145 ps=1.58 w=0.5 l=0.5
X7 5_bit_dac_0[0]/VOUT switch_n_3v3_0/DX_ VOUT VCC sky130_fd_pr__pfet_g5v0d10v5 ad=0.29 pd=2.58 as=0.29 ps=2.58 w=1 l=0.5
X8 5_bit_dac_0[0]/4_bit_dac_0[0]/3_bit_dac_0[0]/2_bit_dac_0[0]/VOUT D1_BUF 5_bit_dac_0[0]/4_bit_dac_0[0]/3_bit_dac_0[0]/2_bit_dac_0[0]/switch2n_3v3_0/VOUTH VSS sky130_fd_pr__nfet_g5v0d10v5 ad=0.145 pd=1.58 as=0.145 ps=1.58 w=0.5 l=0.5
X9 5_bit_dac_0[0]/4_bit_dac_0[0]/3_bit_dac_0[0]/2_bit_dac_0[0]/switch_n_3v3_v2_0/DX_ 5_bit_dac_0[0]/4_bit_dac_0[0]/3_bit_dac_0[0]/2_bit_dac_0[0]/D1 VCC VCC sky130_fd_pr__pfet_g5v0d10v5 ad=0.29 pd=2.58 as=0.29 ps=2.58 w=1 l=0.5
X10 D1_BUF 5_bit_dac_0[0]/4_bit_dac_0[0]/3_bit_dac_0[0]/2_bit_dac_0[0]/switch_n_3v3_v2_0/DX_ VCC VCC sky130_fd_pr__pfet_g5v0d10v5 ad=0.29 pd=2.58 as=0.29 ps=2.58 w=1 l=0.5
X11 5_bit_dac_0[0]/4_bit_dac_0[0]/3_bit_dac_0[0]/2_bit_dac_0[0]/VOUT D1_BUF 5_bit_dac_0[0]/4_bit_dac_0[0]/3_bit_dac_0[0]/2_bit_dac_0[0]/switch2n_3v3_0/VOUTL VCC sky130_fd_pr__pfet_g5v0d10v5 ad=0.29 pd=2.58 as=0.29 ps=2.58 w=1 l=0.5
X12 5_bit_dac_0[0]/4_bit_dac_0[0]/3_bit_dac_0[0]/2_bit_dac_0[0]/switch_n_3v3_v2_0/DX_ 5_bit_dac_0[0]/4_bit_dac_0[0]/3_bit_dac_0[0]/2_bit_dac_0[0]/D1 VSS VSS sky130_fd_pr__nfet_g5v0d10v5 ad=0.145 pd=1.58 as=0.145 ps=1.58 w=0.5 l=0.5
X13 5_bit_dac_0[0]/4_bit_dac_0[0]/3_bit_dac_0[0]/2_bit_dac_0[0]/switch2n_3v3_0/VOUTL 5_bit_dac_0[0]/4_bit_dac_0[0]/3_bit_dac_0[0]/2_bit_dac_0[0]/switch_n_3v3_v2_0/DX_ 5_bit_dac_0[0]/4_bit_dac_0[0]/3_bit_dac_0[0]/2_bit_dac_0[0]/VOUT VSS sky130_fd_pr__nfet_g5v0d10v5 ad=0.145 pd=1.58 as=0.145 ps=1.58 w=0.5 l=0.5
X14 D1_BUF 5_bit_dac_0[0]/4_bit_dac_0[0]/3_bit_dac_0[0]/2_bit_dac_0[0]/switch_n_3v3_v2_0/DX_ VSS VSS sky130_fd_pr__nfet_g5v0d10v5 ad=0.145 pd=1.58 as=0.145 ps=1.58 w=0.5 l=0.5
X15 5_bit_dac_0[0]/4_bit_dac_0[0]/3_bit_dac_0[0]/2_bit_dac_0[0]/switch2n_3v3_0/VOUTH 5_bit_dac_0[0]/4_bit_dac_0[0]/3_bit_dac_0[0]/2_bit_dac_0[0]/switch_n_3v3_v2_0/DX_ 5_bit_dac_0[0]/4_bit_dac_0[0]/3_bit_dac_0[0]/2_bit_dac_0[0]/VOUT VCC sky130_fd_pr__pfet_g5v0d10v5 ad=0.29 pd=2.58 as=0.29 ps=2.58 w=1 l=0.5
X16 5_bit_dac_0[0]/4_bit_dac_0[0]/3_bit_dac_0[0]/2_bit_dac_0[0]/switch2n_3v3_0/VOUTH 5_bit_dac_0[0]/4_bit_dac_0[0]/3_bit_dac_0[0]/2_bit_dac_0[0]/switch2n_3v3_0/a_n6524_n498# 5_bit_dac_0[0]/4_bit_dac_0[0]/3_bit_dac_0[0]/2_bit_dac_0[0]/switch2n_3v3_0/VREFH VCC sky130_fd_pr__pfet_g5v0d10v5 ad=0.29 pd=2.58 as=0.29 ps=2.58 w=1 l=0.5
X17 5_bit_dac_0[0]/4_bit_dac_0[0]/3_bit_dac_0[0]/2_bit_dac_0[0]/switch2n_3v3_0/VREFH D0_BUF 5_bit_dac_0[0]/4_bit_dac_0[0]/3_bit_dac_0[0]/2_bit_dac_0[0]/switch2n_3v3_0/VOUTH VSS sky130_fd_pr__nfet_g5v0d10v5 ad=0.145 pd=1.58 as=0.145 ps=1.58 w=0.5 l=0.5
X18 5_bit_dac_0[0]/4_bit_dac_0[0]/3_bit_dac_0[0]/2_bit_dac_0[0]/switch2n_3v3_0/VREFH 5_bit_dac_0[0]/4_bit_dac_0[0]/3_bit_dac_0[0]/2_bit_dac_0[0]/switch2n_3v3_0/R_H VSS sky130_fd_pr__res_generic_nd__hv w=0.42 l=2.1
X19 D0_BUF 5_bit_dac_0[0]/4_bit_dac_0[0]/3_bit_dac_0[0]/2_bit_dac_0[0]/switch2n_3v3_0/a_n6524_n498# VSS VSS sky130_fd_pr__nfet_g5v0d10v5 ad=0.145 pd=1.58 as=0.145 ps=1.58 w=0.5 l=0.5
X20 5_bit_dac_0[0]/4_bit_dac_0[0]/3_bit_dac_0[0]/2_bit_dac_0[1]/VREFH D0_BUF 5_bit_dac_0[0]/4_bit_dac_0[0]/3_bit_dac_0[0]/2_bit_dac_0[0]/switch2n_3v3_0/VOUTL VCC sky130_fd_pr__pfet_g5v0d10v5 ad=0.29 pd=2.58 as=0.29 ps=2.58 w=1 l=0.5
X21 5_bit_dac_0[0]/4_bit_dac_0[0]/3_bit_dac_0[0]/2_bit_dac_0[0]/switch2n_3v3_0/VREFH VREFH VSS sky130_fd_pr__res_generic_nd__hv w=0.42 l=2.1
X22 5_bit_dac_0[0]/4_bit_dac_0[0]/3_bit_dac_0[0]/2_bit_dac_0[0]/switch2n_3v3_0/a_n6524_n498# 5_bit_dac_0[0]/4_bit_dac_0[0]/3_bit_dac_0[0]/2_bit_dac_0[0]/D0 VSS VSS sky130_fd_pr__nfet_g5v0d10v5 ad=0.145 pd=1.58 as=0.145 ps=1.58 w=0.5 l=0.5
X23 5_bit_dac_0[0]/4_bit_dac_0[0]/3_bit_dac_0[0]/2_bit_dac_0[0]/switch2n_3v3_0/VOUTL 5_bit_dac_0[0]/4_bit_dac_0[0]/3_bit_dac_0[0]/2_bit_dac_0[0]/switch2n_3v3_0/a_n6524_n498# 5_bit_dac_0[0]/4_bit_dac_0[0]/3_bit_dac_0[0]/2_bit_dac_0[1]/VREFH VSS sky130_fd_pr__nfet_g5v0d10v5 ad=0.145 pd=1.58 as=0.145 ps=1.58 w=0.5 l=0.5
X24 5_bit_dac_0[0]/4_bit_dac_0[0]/3_bit_dac_0[0]/2_bit_dac_0[0]/switch2n_3v3_0/VOUTH 5_bit_dac_0[0]/4_bit_dac_0[0]/3_bit_dac_0[0]/2_bit_dac_0[0]/switch2n_3v3_0/a_n6524_n498# 5_bit_dac_0[0]/4_bit_dac_0[0]/3_bit_dac_0[0]/2_bit_dac_0[0]/switch2n_3v3_0/R_H VSS sky130_fd_pr__nfet_g5v0d10v5 ad=0.145 pd=1.58 as=0.145 ps=1.58 w=0.5 l=0.5
X25 5_bit_dac_0[0]/4_bit_dac_0[0]/3_bit_dac_0[0]/2_bit_dac_0[0]/switch2n_3v3_0/R_H D0_BUF 5_bit_dac_0[0]/4_bit_dac_0[0]/3_bit_dac_0[0]/2_bit_dac_0[0]/switch2n_3v3_0/VOUTH VCC sky130_fd_pr__pfet_g5v0d10v5 ad=0.29 pd=2.58 as=0.29 ps=2.58 w=1 l=0.5
X26 5_bit_dac_0[0]/4_bit_dac_0[0]/3_bit_dac_0[0]/2_bit_dac_0[0]/switch2n_3v3_0/R_H 5_bit_dac_0[0]/4_bit_dac_0[0]/3_bit_dac_0[0]/2_bit_dac_0[0]/switch2n_3v3_0/R_L VSS sky130_fd_pr__res_generic_nd__hv w=0.42 l=2.1
X27 5_bit_dac_0[0]/4_bit_dac_0[0]/3_bit_dac_0[0]/2_bit_dac_0[0]/switch2n_3v3_0/R_L 5_bit_dac_0[0]/4_bit_dac_0[0]/3_bit_dac_0[0]/2_bit_dac_0[1]/VREFH VSS sky130_fd_pr__res_generic_nd__hv w=0.42 l=2.1
X28 5_bit_dac_0[0]/4_bit_dac_0[0]/3_bit_dac_0[0]/2_bit_dac_0[0]/switch2n_3v3_0/R_L D0_BUF 5_bit_dac_0[0]/4_bit_dac_0[0]/3_bit_dac_0[0]/2_bit_dac_0[0]/switch2n_3v3_0/VOUTL VSS sky130_fd_pr__nfet_g5v0d10v5 ad=0.145 pd=1.58 as=0.145 ps=1.58 w=0.5 l=0.5
X29 D0_BUF 5_bit_dac_0[0]/4_bit_dac_0[0]/3_bit_dac_0[0]/2_bit_dac_0[0]/switch2n_3v3_0/a_n6524_n498# VCC VCC sky130_fd_pr__pfet_g5v0d10v5 ad=0.29 pd=2.58 as=0.29 ps=2.58 w=1 l=0.5
X30 5_bit_dac_0[0]/4_bit_dac_0[0]/3_bit_dac_0[0]/2_bit_dac_0[0]/switch2n_3v3_0/a_n6524_n498# 5_bit_dac_0[0]/4_bit_dac_0[0]/3_bit_dac_0[0]/2_bit_dac_0[0]/D0 VCC VCC sky130_fd_pr__pfet_g5v0d10v5 ad=0.29 pd=2.58 as=0.29 ps=2.58 w=1 l=0.5
X31 5_bit_dac_0[0]/4_bit_dac_0[0]/3_bit_dac_0[0]/2_bit_dac_0[0]/switch2n_3v3_0/VOUTL 5_bit_dac_0[0]/4_bit_dac_0[0]/3_bit_dac_0[0]/2_bit_dac_0[0]/switch2n_3v3_0/a_n6524_n498# 5_bit_dac_0[0]/4_bit_dac_0[0]/3_bit_dac_0[0]/2_bit_dac_0[0]/switch2n_3v3_0/R_L VCC sky130_fd_pr__pfet_g5v0d10v5 ad=0.29 pd=2.58 as=0.29 ps=2.58 w=1 l=0.5
X32 5_bit_dac_0[0]/4_bit_dac_0[0]/3_bit_dac_0[0]/2_bit_dac_0[1]/VOUT 5_bit_dac_0[0]/4_bit_dac_0[0]/3_bit_dac_0[0]/2_bit_dac_0[0]/D1 5_bit_dac_0[0]/4_bit_dac_0[0]/3_bit_dac_0[0]/2_bit_dac_0[1]/switch2n_3v3_0/VOUTH VSS sky130_fd_pr__nfet_g5v0d10v5 ad=0.435 pd=4.74 as=0.435 ps=4.74 w=0.5 l=0.5
X33 5_bit_dac_0[0]/4_bit_dac_0[0]/3_bit_dac_0[0]/2_bit_dac_0[1]/switch_n_3v3_v2_0/DX_ 5_bit_dac_0[0]/4_bit_dac_0[0]/3_bit_dac_0[0]/D1 VCC VCC sky130_fd_pr__pfet_g5v0d10v5 ad=0.29 pd=2.58 as=27.3 ps=243 w=1 l=0.5
X34 5_bit_dac_0[0]/4_bit_dac_0[0]/3_bit_dac_0[0]/2_bit_dac_0[0]/D1 5_bit_dac_0[0]/4_bit_dac_0[0]/3_bit_dac_0[0]/2_bit_dac_0[1]/switch_n_3v3_v2_0/DX_ VCC VCC sky130_fd_pr__pfet_g5v0d10v5 ad=0.29 pd=2.58 as=0 ps=0 w=1 l=0.5
X35 5_bit_dac_0[0]/4_bit_dac_0[0]/3_bit_dac_0[0]/2_bit_dac_0[1]/VOUT 5_bit_dac_0[0]/4_bit_dac_0[0]/3_bit_dac_0[0]/2_bit_dac_0[0]/D1 5_bit_dac_0[0]/4_bit_dac_0[0]/3_bit_dac_0[0]/2_bit_dac_0[1]/switch2n_3v3_0/VOUTL VCC sky130_fd_pr__pfet_g5v0d10v5 ad=0.87 pd=7.74 as=0.87 ps=7.74 w=1 l=0.5
X36 5_bit_dac_0[0]/4_bit_dac_0[0]/3_bit_dac_0[0]/2_bit_dac_0[1]/switch_n_3v3_v2_0/DX_ 5_bit_dac_0[0]/4_bit_dac_0[0]/3_bit_dac_0[0]/D1 VSS VSS sky130_fd_pr__nfet_g5v0d10v5 ad=0.145 pd=1.58 as=13.6 ps=149 w=0.5 l=0.5
X37 5_bit_dac_0[0]/4_bit_dac_0[0]/3_bit_dac_0[0]/2_bit_dac_0[1]/switch2n_3v3_0/VOUTL 5_bit_dac_0[0]/4_bit_dac_0[0]/3_bit_dac_0[0]/2_bit_dac_0[1]/switch_n_3v3_v2_0/DX_ 5_bit_dac_0[0]/4_bit_dac_0[0]/3_bit_dac_0[0]/2_bit_dac_0[1]/VOUT VSS sky130_fd_pr__nfet_g5v0d10v5 ad=0.435 pd=4.74 as=0 ps=0 w=0.5 l=0.5
X38 5_bit_dac_0[0]/4_bit_dac_0[0]/3_bit_dac_0[0]/2_bit_dac_0[0]/D1 5_bit_dac_0[0]/4_bit_dac_0[0]/3_bit_dac_0[0]/2_bit_dac_0[1]/switch_n_3v3_v2_0/DX_ VSS VSS sky130_fd_pr__nfet_g5v0d10v5 ad=0.145 pd=1.58 as=0 ps=0 w=0.5 l=0.5
X39 5_bit_dac_0[0]/4_bit_dac_0[0]/3_bit_dac_0[0]/2_bit_dac_0[1]/switch2n_3v3_0/VOUTH 5_bit_dac_0[0]/4_bit_dac_0[0]/3_bit_dac_0[0]/2_bit_dac_0[1]/switch_n_3v3_v2_0/DX_ 5_bit_dac_0[0]/4_bit_dac_0[0]/3_bit_dac_0[0]/2_bit_dac_0[1]/VOUT VCC sky130_fd_pr__pfet_g5v0d10v5 ad=0.87 pd=7.74 as=0 ps=0 w=1 l=0.5
X40 5_bit_dac_0[0]/4_bit_dac_0[0]/3_bit_dac_0[0]/2_bit_dac_0[1]/switch2n_3v3_0/VOUTH 5_bit_dac_0[0]/4_bit_dac_0[0]/3_bit_dac_0[0]/2_bit_dac_0[1]/switch2n_3v3_0/a_n6524_n498# 5_bit_dac_0[0]/4_bit_dac_0[0]/3_bit_dac_0[0]/2_bit_dac_0[1]/switch2n_3v3_0/VREFH VCC sky130_fd_pr__pfet_g5v0d10v5 ad=0 pd=0 as=0.29 ps=2.58 w=1 l=0.5
X41 5_bit_dac_0[0]/4_bit_dac_0[0]/3_bit_dac_0[0]/2_bit_dac_0[1]/switch2n_3v3_0/VREFH 5_bit_dac_0[0]/4_bit_dac_0[0]/3_bit_dac_0[0]/2_bit_dac_0[0]/D0 5_bit_dac_0[0]/4_bit_dac_0[0]/3_bit_dac_0[0]/2_bit_dac_0[1]/switch2n_3v3_0/VOUTH VSS sky130_fd_pr__nfet_g5v0d10v5 ad=0.578 pd=5.32 as=0 ps=0 w=0.5 l=0.5
X42 5_bit_dac_0[0]/4_bit_dac_0[0]/3_bit_dac_0[0]/2_bit_dac_0[1]/switch2n_3v3_0/VREFH 5_bit_dac_0[0]/4_bit_dac_0[0]/3_bit_dac_0[0]/2_bit_dac_0[1]/switch2n_3v3_0/R_H VSS sky130_fd_pr__res_generic_nd__hv w=0.42 l=2.1
X43 5_bit_dac_0[0]/4_bit_dac_0[0]/3_bit_dac_0[0]/2_bit_dac_0[0]/D0 5_bit_dac_0[0]/4_bit_dac_0[0]/3_bit_dac_0[0]/2_bit_dac_0[1]/switch2n_3v3_0/a_n6524_n498# VSS VSS sky130_fd_pr__nfet_g5v0d10v5 ad=0.145 pd=1.58 as=0 ps=0 w=0.5 l=0.5
X44 5_bit_dac_0[0]/4_bit_dac_0[0]/3_bit_dac_0[1]/VREFH 5_bit_dac_0[0]/4_bit_dac_0[0]/3_bit_dac_0[0]/2_bit_dac_0[0]/D0 5_bit_dac_0[0]/4_bit_dac_0[0]/3_bit_dac_0[0]/2_bit_dac_0[1]/switch2n_3v3_0/VOUTL VCC sky130_fd_pr__pfet_g5v0d10v5 ad=0.29 pd=2.58 as=0 ps=0 w=1 l=0.5
X45 5_bit_dac_0[0]/4_bit_dac_0[0]/3_bit_dac_0[0]/2_bit_dac_0[1]/switch2n_3v3_0/VREFH 5_bit_dac_0[0]/4_bit_dac_0[0]/3_bit_dac_0[0]/2_bit_dac_0[1]/VREFH VSS sky130_fd_pr__res_generic_nd__hv w=0.42 l=2.1
X46 5_bit_dac_0[0]/4_bit_dac_0[0]/3_bit_dac_0[0]/2_bit_dac_0[1]/switch2n_3v3_0/a_n6524_n498# 5_bit_dac_0[0]/4_bit_dac_0[0]/3_bit_dac_0[0]/D0 VSS VSS sky130_fd_pr__nfet_g5v0d10v5 ad=0.145 pd=1.58 as=0 ps=0 w=0.5 l=0.5
X47 5_bit_dac_0[0]/4_bit_dac_0[0]/3_bit_dac_0[0]/2_bit_dac_0[1]/switch2n_3v3_0/VOUTL 5_bit_dac_0[0]/4_bit_dac_0[0]/3_bit_dac_0[0]/2_bit_dac_0[1]/switch2n_3v3_0/a_n6524_n498# 5_bit_dac_0[0]/4_bit_dac_0[0]/3_bit_dac_0[1]/VREFH VSS sky130_fd_pr__nfet_g5v0d10v5 ad=0 pd=0 as=0.578 ps=5.32 w=0.5 l=0.5
X48 5_bit_dac_0[0]/4_bit_dac_0[0]/3_bit_dac_0[0]/2_bit_dac_0[1]/switch2n_3v3_0/VOUTH 5_bit_dac_0[0]/4_bit_dac_0[0]/3_bit_dac_0[0]/2_bit_dac_0[1]/switch2n_3v3_0/a_n6524_n498# 5_bit_dac_0[0]/4_bit_dac_0[0]/3_bit_dac_0[0]/2_bit_dac_0[1]/switch2n_3v3_0/R_H VSS sky130_fd_pr__nfet_g5v0d10v5 ad=0 pd=0 as=0.578 ps=5.32 w=0.5 l=0.5
X49 5_bit_dac_0[0]/4_bit_dac_0[0]/3_bit_dac_0[0]/2_bit_dac_0[1]/switch2n_3v3_0/R_H 5_bit_dac_0[0]/4_bit_dac_0[0]/3_bit_dac_0[0]/2_bit_dac_0[0]/D0 5_bit_dac_0[0]/4_bit_dac_0[0]/3_bit_dac_0[0]/2_bit_dac_0[1]/switch2n_3v3_0/VOUTH VCC sky130_fd_pr__pfet_g5v0d10v5 ad=0.29 pd=2.58 as=0 ps=0 w=1 l=0.5
X50 5_bit_dac_0[0]/4_bit_dac_0[0]/3_bit_dac_0[0]/2_bit_dac_0[1]/switch2n_3v3_0/R_H 5_bit_dac_0[0]/4_bit_dac_0[0]/3_bit_dac_0[0]/2_bit_dac_0[1]/switch2n_3v3_0/R_L VSS sky130_fd_pr__res_generic_nd__hv w=0.42 l=2.1
X51 5_bit_dac_0[0]/4_bit_dac_0[0]/3_bit_dac_0[0]/2_bit_dac_0[1]/switch2n_3v3_0/R_L 5_bit_dac_0[0]/4_bit_dac_0[0]/3_bit_dac_0[1]/VREFH VSS sky130_fd_pr__res_generic_nd__hv w=0.42 l=2.1
X52 5_bit_dac_0[0]/4_bit_dac_0[0]/3_bit_dac_0[0]/2_bit_dac_0[1]/switch2n_3v3_0/R_L 5_bit_dac_0[0]/4_bit_dac_0[0]/3_bit_dac_0[0]/2_bit_dac_0[0]/D0 5_bit_dac_0[0]/4_bit_dac_0[0]/3_bit_dac_0[0]/2_bit_dac_0[1]/switch2n_3v3_0/VOUTL VSS sky130_fd_pr__nfet_g5v0d10v5 ad=0.578 pd=5.32 as=0 ps=0 w=0.5 l=0.5
X53 5_bit_dac_0[0]/4_bit_dac_0[0]/3_bit_dac_0[0]/2_bit_dac_0[0]/D0 5_bit_dac_0[0]/4_bit_dac_0[0]/3_bit_dac_0[0]/2_bit_dac_0[1]/switch2n_3v3_0/a_n6524_n498# VCC VCC sky130_fd_pr__pfet_g5v0d10v5 ad=0.29 pd=2.58 as=0 ps=0 w=1 l=0.5
X54 5_bit_dac_0[0]/4_bit_dac_0[0]/3_bit_dac_0[0]/2_bit_dac_0[1]/switch2n_3v3_0/a_n6524_n498# 5_bit_dac_0[0]/4_bit_dac_0[0]/3_bit_dac_0[0]/D0 VCC VCC sky130_fd_pr__pfet_g5v0d10v5 ad=0.29 pd=2.58 as=0 ps=0 w=1 l=0.5
X55 5_bit_dac_0[0]/4_bit_dac_0[0]/3_bit_dac_0[0]/2_bit_dac_0[1]/switch2n_3v3_0/VOUTL 5_bit_dac_0[0]/4_bit_dac_0[0]/3_bit_dac_0[0]/2_bit_dac_0[1]/switch2n_3v3_0/a_n6524_n498# 5_bit_dac_0[0]/4_bit_dac_0[0]/3_bit_dac_0[0]/2_bit_dac_0[1]/switch2n_3v3_0/R_L VCC sky130_fd_pr__pfet_g5v0d10v5 ad=0 pd=0 as=0.29 ps=2.58 w=1 l=0.5
X56 5_bit_dac_0[0]/4_bit_dac_0[0]/3_bit_dac_0[0]/VOUT D2_BUF 5_bit_dac_0[0]/4_bit_dac_0[0]/3_bit_dac_0[0]/2_bit_dac_0[0]/VOUT VSS sky130_fd_pr__nfet_g5v0d10v5 ad=0.435 pd=4.74 as=0.435 ps=4.74 w=0.5 l=0.5
X57 5_bit_dac_0[0]/4_bit_dac_0[0]/3_bit_dac_0[0]/switch_n_3v3_1/DX_ 5_bit_dac_0[0]/4_bit_dac_0[0]/switch_n_3v3_0/D2 VCC VCC sky130_fd_pr__pfet_g5v0d10v5 ad=0.29 pd=2.58 as=0 ps=0 w=1 l=0.5
X58 D2_BUF 5_bit_dac_0[0]/4_bit_dac_0[0]/3_bit_dac_0[0]/switch_n_3v3_1/DX_ VCC VCC sky130_fd_pr__pfet_g5v0d10v5 ad=0.29 pd=2.58 as=0 ps=0 w=1 l=0.5
X59 5_bit_dac_0[0]/4_bit_dac_0[0]/3_bit_dac_0[0]/VOUT D2_BUF 5_bit_dac_0[0]/4_bit_dac_0[0]/3_bit_dac_0[0]/2_bit_dac_0[1]/VOUT VCC sky130_fd_pr__pfet_g5v0d10v5 ad=0.87 pd=7.74 as=0 ps=0 w=1 l=0.5
X60 5_bit_dac_0[0]/4_bit_dac_0[0]/3_bit_dac_0[0]/switch_n_3v3_1/DX_ 5_bit_dac_0[0]/4_bit_dac_0[0]/switch_n_3v3_0/D2 VSS VSS sky130_fd_pr__nfet_g5v0d10v5 ad=0.145 pd=1.58 as=0 ps=0 w=0.5 l=0.5
X61 5_bit_dac_0[0]/4_bit_dac_0[0]/3_bit_dac_0[0]/2_bit_dac_0[1]/VOUT 5_bit_dac_0[0]/4_bit_dac_0[0]/3_bit_dac_0[0]/switch_n_3v3_1/DX_ 5_bit_dac_0[0]/4_bit_dac_0[0]/3_bit_dac_0[0]/VOUT VSS sky130_fd_pr__nfet_g5v0d10v5 ad=0 pd=0 as=0 ps=0 w=0.5 l=0.5
X62 D2_BUF 5_bit_dac_0[0]/4_bit_dac_0[0]/3_bit_dac_0[0]/switch_n_3v3_1/DX_ VSS VSS sky130_fd_pr__nfet_g5v0d10v5 ad=0.145 pd=1.58 as=0 ps=0 w=0.5 l=0.5
X63 5_bit_dac_0[0]/4_bit_dac_0[0]/3_bit_dac_0[0]/2_bit_dac_0[0]/VOUT 5_bit_dac_0[0]/4_bit_dac_0[0]/3_bit_dac_0[0]/switch_n_3v3_1/DX_ 5_bit_dac_0[0]/4_bit_dac_0[0]/3_bit_dac_0[0]/VOUT VCC sky130_fd_pr__pfet_g5v0d10v5 ad=0.87 pd=7.74 as=0 ps=0 w=1 l=0.5
X64 5_bit_dac_0[0]/4_bit_dac_0[0]/3_bit_dac_0[1]/2_bit_dac_0[0]/VOUT 5_bit_dac_0[0]/4_bit_dac_0[0]/3_bit_dac_0[0]/D1 5_bit_dac_0[0]/4_bit_dac_0[0]/3_bit_dac_0[1]/2_bit_dac_0[0]/switch2n_3v3_0/VOUTH VSS sky130_fd_pr__nfet_g5v0d10v5 ad=0.435 pd=4.74 as=0.435 ps=4.74 w=0.5 l=0.5
X65 5_bit_dac_0[0]/4_bit_dac_0[0]/3_bit_dac_0[1]/2_bit_dac_0[0]/switch_n_3v3_v2_0/DX_ 5_bit_dac_0[0]/4_bit_dac_0[0]/3_bit_dac_0[1]/2_bit_dac_0[0]/D1 VCC VCC sky130_fd_pr__pfet_g5v0d10v5 ad=0.29 pd=2.58 as=0 ps=0 w=1 l=0.5
X66 5_bit_dac_0[0]/4_bit_dac_0[0]/3_bit_dac_0[0]/D1 5_bit_dac_0[0]/4_bit_dac_0[0]/3_bit_dac_0[1]/2_bit_dac_0[0]/switch_n_3v3_v2_0/DX_ VCC VCC sky130_fd_pr__pfet_g5v0d10v5 ad=0.29 pd=2.58 as=0 ps=0 w=1 l=0.5
X67 5_bit_dac_0[0]/4_bit_dac_0[0]/3_bit_dac_0[1]/2_bit_dac_0[0]/VOUT 5_bit_dac_0[0]/4_bit_dac_0[0]/3_bit_dac_0[0]/D1 5_bit_dac_0[0]/4_bit_dac_0[0]/3_bit_dac_0[1]/2_bit_dac_0[0]/switch2n_3v3_0/VOUTL VCC sky130_fd_pr__pfet_g5v0d10v5 ad=0.87 pd=7.74 as=0.87 ps=7.74 w=1 l=0.5
X68 5_bit_dac_0[0]/4_bit_dac_0[0]/3_bit_dac_0[1]/2_bit_dac_0[0]/switch_n_3v3_v2_0/DX_ 5_bit_dac_0[0]/4_bit_dac_0[0]/3_bit_dac_0[1]/2_bit_dac_0[0]/D1 VSS VSS sky130_fd_pr__nfet_g5v0d10v5 ad=0.145 pd=1.58 as=0 ps=0 w=0.5 l=0.5
X69 5_bit_dac_0[0]/4_bit_dac_0[0]/3_bit_dac_0[1]/2_bit_dac_0[0]/switch2n_3v3_0/VOUTL 5_bit_dac_0[0]/4_bit_dac_0[0]/3_bit_dac_0[1]/2_bit_dac_0[0]/switch_n_3v3_v2_0/DX_ 5_bit_dac_0[0]/4_bit_dac_0[0]/3_bit_dac_0[1]/2_bit_dac_0[0]/VOUT VSS sky130_fd_pr__nfet_g5v0d10v5 ad=0.435 pd=4.74 as=0 ps=0 w=0.5 l=0.5
X70 5_bit_dac_0[0]/4_bit_dac_0[0]/3_bit_dac_0[0]/D1 5_bit_dac_0[0]/4_bit_dac_0[0]/3_bit_dac_0[1]/2_bit_dac_0[0]/switch_n_3v3_v2_0/DX_ VSS VSS sky130_fd_pr__nfet_g5v0d10v5 ad=0.145 pd=1.58 as=0 ps=0 w=0.5 l=0.5
X71 5_bit_dac_0[0]/4_bit_dac_0[0]/3_bit_dac_0[1]/2_bit_dac_0[0]/switch2n_3v3_0/VOUTH 5_bit_dac_0[0]/4_bit_dac_0[0]/3_bit_dac_0[1]/2_bit_dac_0[0]/switch_n_3v3_v2_0/DX_ 5_bit_dac_0[0]/4_bit_dac_0[0]/3_bit_dac_0[1]/2_bit_dac_0[0]/VOUT VCC sky130_fd_pr__pfet_g5v0d10v5 ad=0.87 pd=7.74 as=0 ps=0 w=1 l=0.5
X72 5_bit_dac_0[0]/4_bit_dac_0[0]/3_bit_dac_0[1]/2_bit_dac_0[0]/switch2n_3v3_0/VOUTH 5_bit_dac_0[0]/4_bit_dac_0[0]/3_bit_dac_0[1]/2_bit_dac_0[0]/switch2n_3v3_0/a_n6524_n498# 5_bit_dac_0[0]/4_bit_dac_0[0]/3_bit_dac_0[1]/2_bit_dac_0[0]/switch2n_3v3_0/VREFH VCC sky130_fd_pr__pfet_g5v0d10v5 ad=0 pd=0 as=0.29 ps=2.58 w=1 l=0.5
X73 5_bit_dac_0[0]/4_bit_dac_0[0]/3_bit_dac_0[1]/2_bit_dac_0[0]/switch2n_3v3_0/VREFH 5_bit_dac_0[0]/4_bit_dac_0[0]/3_bit_dac_0[0]/D0 5_bit_dac_0[0]/4_bit_dac_0[0]/3_bit_dac_0[1]/2_bit_dac_0[0]/switch2n_3v3_0/VOUTH VSS sky130_fd_pr__nfet_g5v0d10v5 ad=0.578 pd=5.32 as=0 ps=0 w=0.5 l=0.5
X74 5_bit_dac_0[0]/4_bit_dac_0[0]/3_bit_dac_0[1]/2_bit_dac_0[0]/switch2n_3v3_0/VREFH 5_bit_dac_0[0]/4_bit_dac_0[0]/3_bit_dac_0[1]/2_bit_dac_0[0]/switch2n_3v3_0/R_H VSS sky130_fd_pr__res_generic_nd__hv w=0.42 l=2.1
X75 5_bit_dac_0[0]/4_bit_dac_0[0]/3_bit_dac_0[0]/D0 5_bit_dac_0[0]/4_bit_dac_0[0]/3_bit_dac_0[1]/2_bit_dac_0[0]/switch2n_3v3_0/a_n6524_n498# VSS VSS sky130_fd_pr__nfet_g5v0d10v5 ad=0.145 pd=1.58 as=0 ps=0 w=0.5 l=0.5
X76 5_bit_dac_0[0]/4_bit_dac_0[0]/3_bit_dac_0[1]/2_bit_dac_0[1]/VREFH 5_bit_dac_0[0]/4_bit_dac_0[0]/3_bit_dac_0[0]/D0 5_bit_dac_0[0]/4_bit_dac_0[0]/3_bit_dac_0[1]/2_bit_dac_0[0]/switch2n_3v3_0/VOUTL VCC sky130_fd_pr__pfet_g5v0d10v5 ad=0.29 pd=2.58 as=0 ps=0 w=1 l=0.5
X77 5_bit_dac_0[0]/4_bit_dac_0[0]/3_bit_dac_0[1]/2_bit_dac_0[0]/switch2n_3v3_0/VREFH 5_bit_dac_0[0]/4_bit_dac_0[0]/3_bit_dac_0[1]/VREFH VSS sky130_fd_pr__res_generic_nd__hv w=0.42 l=2.1
X78 5_bit_dac_0[0]/4_bit_dac_0[0]/3_bit_dac_0[1]/2_bit_dac_0[0]/switch2n_3v3_0/a_n6524_n498# 5_bit_dac_0[0]/4_bit_dac_0[0]/3_bit_dac_0[1]/2_bit_dac_0[0]/D0 VSS VSS sky130_fd_pr__nfet_g5v0d10v5 ad=0.145 pd=1.58 as=0 ps=0 w=0.5 l=0.5
X79 5_bit_dac_0[0]/4_bit_dac_0[0]/3_bit_dac_0[1]/2_bit_dac_0[0]/switch2n_3v3_0/VOUTL 5_bit_dac_0[0]/4_bit_dac_0[0]/3_bit_dac_0[1]/2_bit_dac_0[0]/switch2n_3v3_0/a_n6524_n498# 5_bit_dac_0[0]/4_bit_dac_0[0]/3_bit_dac_0[1]/2_bit_dac_0[1]/VREFH VSS sky130_fd_pr__nfet_g5v0d10v5 ad=0 pd=0 as=0.578 ps=5.32 w=0.5 l=0.5
X80 5_bit_dac_0[0]/4_bit_dac_0[0]/3_bit_dac_0[1]/2_bit_dac_0[0]/switch2n_3v3_0/VOUTH 5_bit_dac_0[0]/4_bit_dac_0[0]/3_bit_dac_0[1]/2_bit_dac_0[0]/switch2n_3v3_0/a_n6524_n498# 5_bit_dac_0[0]/4_bit_dac_0[0]/3_bit_dac_0[1]/2_bit_dac_0[0]/switch2n_3v3_0/R_H VSS sky130_fd_pr__nfet_g5v0d10v5 ad=0 pd=0 as=0.578 ps=5.32 w=0.5 l=0.5
X81 5_bit_dac_0[0]/4_bit_dac_0[0]/3_bit_dac_0[1]/2_bit_dac_0[0]/switch2n_3v3_0/R_H 5_bit_dac_0[0]/4_bit_dac_0[0]/3_bit_dac_0[0]/D0 5_bit_dac_0[0]/4_bit_dac_0[0]/3_bit_dac_0[1]/2_bit_dac_0[0]/switch2n_3v3_0/VOUTH VCC sky130_fd_pr__pfet_g5v0d10v5 ad=0.29 pd=2.58 as=0 ps=0 w=1 l=0.5
X82 5_bit_dac_0[0]/4_bit_dac_0[0]/3_bit_dac_0[1]/2_bit_dac_0[0]/switch2n_3v3_0/R_H 5_bit_dac_0[0]/4_bit_dac_0[0]/3_bit_dac_0[1]/2_bit_dac_0[0]/switch2n_3v3_0/R_L VSS sky130_fd_pr__res_generic_nd__hv w=0.42 l=2.1
X83 5_bit_dac_0[0]/4_bit_dac_0[0]/3_bit_dac_0[1]/2_bit_dac_0[0]/switch2n_3v3_0/R_L 5_bit_dac_0[0]/4_bit_dac_0[0]/3_bit_dac_0[1]/2_bit_dac_0[1]/VREFH VSS sky130_fd_pr__res_generic_nd__hv w=0.42 l=2.1
X84 5_bit_dac_0[0]/4_bit_dac_0[0]/3_bit_dac_0[1]/2_bit_dac_0[0]/switch2n_3v3_0/R_L 5_bit_dac_0[0]/4_bit_dac_0[0]/3_bit_dac_0[0]/D0 5_bit_dac_0[0]/4_bit_dac_0[0]/3_bit_dac_0[1]/2_bit_dac_0[0]/switch2n_3v3_0/VOUTL VSS sky130_fd_pr__nfet_g5v0d10v5 ad=0.578 pd=5.32 as=0 ps=0 w=0.5 l=0.5
X85 5_bit_dac_0[0]/4_bit_dac_0[0]/3_bit_dac_0[0]/D0 5_bit_dac_0[0]/4_bit_dac_0[0]/3_bit_dac_0[1]/2_bit_dac_0[0]/switch2n_3v3_0/a_n6524_n498# VCC VCC sky130_fd_pr__pfet_g5v0d10v5 ad=0.29 pd=2.58 as=0 ps=0 w=1 l=0.5
X86 5_bit_dac_0[0]/4_bit_dac_0[0]/3_bit_dac_0[1]/2_bit_dac_0[0]/switch2n_3v3_0/a_n6524_n498# 5_bit_dac_0[0]/4_bit_dac_0[0]/3_bit_dac_0[1]/2_bit_dac_0[0]/D0 VCC VCC sky130_fd_pr__pfet_g5v0d10v5 ad=0.29 pd=2.58 as=0 ps=0 w=1 l=0.5
X87 5_bit_dac_0[0]/4_bit_dac_0[0]/3_bit_dac_0[1]/2_bit_dac_0[0]/switch2n_3v3_0/VOUTL 5_bit_dac_0[0]/4_bit_dac_0[0]/3_bit_dac_0[1]/2_bit_dac_0[0]/switch2n_3v3_0/a_n6524_n498# 5_bit_dac_0[0]/4_bit_dac_0[0]/3_bit_dac_0[1]/2_bit_dac_0[0]/switch2n_3v3_0/R_L VCC sky130_fd_pr__pfet_g5v0d10v5 ad=0 pd=0 as=0.29 ps=2.58 w=1 l=0.5
X88 5_bit_dac_0[0]/4_bit_dac_0[0]/3_bit_dac_0[1]/2_bit_dac_0[1]/VOUT 5_bit_dac_0[0]/4_bit_dac_0[0]/3_bit_dac_0[1]/2_bit_dac_0[0]/D1 5_bit_dac_0[0]/4_bit_dac_0[0]/3_bit_dac_0[1]/2_bit_dac_0[1]/switch2n_3v3_0/VOUTH VSS sky130_fd_pr__nfet_g5v0d10v5 ad=0.435 pd=4.74 as=0.435 ps=4.74 w=0.5 l=0.5
X89 5_bit_dac_0[0]/4_bit_dac_0[0]/3_bit_dac_0[1]/2_bit_dac_0[1]/switch_n_3v3_v2_0/DX_ 5_bit_dac_0[0]/4_bit_dac_0[0]/D1 VCC VCC sky130_fd_pr__pfet_g5v0d10v5 ad=0.29 pd=2.58 as=0 ps=0 w=1 l=0.5
X90 5_bit_dac_0[0]/4_bit_dac_0[0]/3_bit_dac_0[1]/2_bit_dac_0[0]/D1 5_bit_dac_0[0]/4_bit_dac_0[0]/3_bit_dac_0[1]/2_bit_dac_0[1]/switch_n_3v3_v2_0/DX_ VCC VCC sky130_fd_pr__pfet_g5v0d10v5 ad=0.29 pd=2.58 as=0 ps=0 w=1 l=0.5
X91 5_bit_dac_0[0]/4_bit_dac_0[0]/3_bit_dac_0[1]/2_bit_dac_0[1]/VOUT 5_bit_dac_0[0]/4_bit_dac_0[0]/3_bit_dac_0[1]/2_bit_dac_0[0]/D1 5_bit_dac_0[0]/4_bit_dac_0[0]/3_bit_dac_0[1]/2_bit_dac_0[1]/switch2n_3v3_0/VOUTL VCC sky130_fd_pr__pfet_g5v0d10v5 ad=0.87 pd=7.74 as=0.87 ps=7.74 w=1 l=0.5
X92 5_bit_dac_0[0]/4_bit_dac_0[0]/3_bit_dac_0[1]/2_bit_dac_0[1]/switch_n_3v3_v2_0/DX_ 5_bit_dac_0[0]/4_bit_dac_0[0]/D1 VSS VSS sky130_fd_pr__nfet_g5v0d10v5 ad=0.145 pd=1.58 as=0 ps=0 w=0.5 l=0.5
X93 5_bit_dac_0[0]/4_bit_dac_0[0]/3_bit_dac_0[1]/2_bit_dac_0[1]/switch2n_3v3_0/VOUTL 5_bit_dac_0[0]/4_bit_dac_0[0]/3_bit_dac_0[1]/2_bit_dac_0[1]/switch_n_3v3_v2_0/DX_ 5_bit_dac_0[0]/4_bit_dac_0[0]/3_bit_dac_0[1]/2_bit_dac_0[1]/VOUT VSS sky130_fd_pr__nfet_g5v0d10v5 ad=0.435 pd=4.74 as=0 ps=0 w=0.5 l=0.5
X94 5_bit_dac_0[0]/4_bit_dac_0[0]/3_bit_dac_0[1]/2_bit_dac_0[0]/D1 5_bit_dac_0[0]/4_bit_dac_0[0]/3_bit_dac_0[1]/2_bit_dac_0[1]/switch_n_3v3_v2_0/DX_ VSS VSS sky130_fd_pr__nfet_g5v0d10v5 ad=0.145 pd=1.58 as=0 ps=0 w=0.5 l=0.5
X95 5_bit_dac_0[0]/4_bit_dac_0[0]/3_bit_dac_0[1]/2_bit_dac_0[1]/switch2n_3v3_0/VOUTH 5_bit_dac_0[0]/4_bit_dac_0[0]/3_bit_dac_0[1]/2_bit_dac_0[1]/switch_n_3v3_v2_0/DX_ 5_bit_dac_0[0]/4_bit_dac_0[0]/3_bit_dac_0[1]/2_bit_dac_0[1]/VOUT VCC sky130_fd_pr__pfet_g5v0d10v5 ad=0.87 pd=7.74 as=0 ps=0 w=1 l=0.5
X96 5_bit_dac_0[0]/4_bit_dac_0[0]/3_bit_dac_0[1]/2_bit_dac_0[1]/switch2n_3v3_0/VOUTH 5_bit_dac_0[0]/4_bit_dac_0[0]/3_bit_dac_0[1]/2_bit_dac_0[1]/switch2n_3v3_0/a_n6524_n498# 5_bit_dac_0[0]/4_bit_dac_0[0]/3_bit_dac_0[1]/2_bit_dac_0[1]/switch2n_3v3_0/VREFH VCC sky130_fd_pr__pfet_g5v0d10v5 ad=0 pd=0 as=0.29 ps=2.58 w=1 l=0.5
X97 5_bit_dac_0[0]/4_bit_dac_0[0]/3_bit_dac_0[1]/2_bit_dac_0[1]/switch2n_3v3_0/VREFH 5_bit_dac_0[0]/4_bit_dac_0[0]/3_bit_dac_0[1]/2_bit_dac_0[0]/D0 5_bit_dac_0[0]/4_bit_dac_0[0]/3_bit_dac_0[1]/2_bit_dac_0[1]/switch2n_3v3_0/VOUTH VSS sky130_fd_pr__nfet_g5v0d10v5 ad=0.578 pd=5.32 as=0 ps=0 w=0.5 l=0.5
X98 5_bit_dac_0[0]/4_bit_dac_0[0]/3_bit_dac_0[1]/2_bit_dac_0[1]/switch2n_3v3_0/VREFH 5_bit_dac_0[0]/4_bit_dac_0[0]/3_bit_dac_0[1]/2_bit_dac_0[1]/switch2n_3v3_0/R_H VSS sky130_fd_pr__res_generic_nd__hv w=0.42 l=2.1
X99 5_bit_dac_0[0]/4_bit_dac_0[0]/3_bit_dac_0[1]/2_bit_dac_0[0]/D0 5_bit_dac_0[0]/4_bit_dac_0[0]/3_bit_dac_0[1]/2_bit_dac_0[1]/switch2n_3v3_0/a_n6524_n498# VSS VSS sky130_fd_pr__nfet_g5v0d10v5 ad=0.145 pd=1.58 as=0 ps=0 w=0.5 l=0.5
X100 5_bit_dac_0[0]/4_bit_dac_0[1]/VREFH 5_bit_dac_0[0]/4_bit_dac_0[0]/3_bit_dac_0[1]/2_bit_dac_0[0]/D0 5_bit_dac_0[0]/4_bit_dac_0[0]/3_bit_dac_0[1]/2_bit_dac_0[1]/switch2n_3v3_0/VOUTL VCC sky130_fd_pr__pfet_g5v0d10v5 ad=0.29 pd=2.58 as=0 ps=0 w=1 l=0.5
X101 5_bit_dac_0[0]/4_bit_dac_0[0]/3_bit_dac_0[1]/2_bit_dac_0[1]/switch2n_3v3_0/VREFH 5_bit_dac_0[0]/4_bit_dac_0[0]/3_bit_dac_0[1]/2_bit_dac_0[1]/VREFH VSS sky130_fd_pr__res_generic_nd__hv w=0.42 l=2.1
X102 5_bit_dac_0[0]/4_bit_dac_0[0]/3_bit_dac_0[1]/2_bit_dac_0[1]/switch2n_3v3_0/a_n6524_n498# 5_bit_dac_0[0]/4_bit_dac_0[0]/D0 VSS VSS sky130_fd_pr__nfet_g5v0d10v5 ad=0.145 pd=1.58 as=0 ps=0 w=0.5 l=0.5
X103 5_bit_dac_0[0]/4_bit_dac_0[0]/3_bit_dac_0[1]/2_bit_dac_0[1]/switch2n_3v3_0/VOUTL 5_bit_dac_0[0]/4_bit_dac_0[0]/3_bit_dac_0[1]/2_bit_dac_0[1]/switch2n_3v3_0/a_n6524_n498# 5_bit_dac_0[0]/4_bit_dac_0[1]/VREFH VSS sky130_fd_pr__nfet_g5v0d10v5 ad=0 pd=0 as=0.578 ps=5.32 w=0.5 l=0.5
X104 5_bit_dac_0[0]/4_bit_dac_0[0]/3_bit_dac_0[1]/2_bit_dac_0[1]/switch2n_3v3_0/VOUTH 5_bit_dac_0[0]/4_bit_dac_0[0]/3_bit_dac_0[1]/2_bit_dac_0[1]/switch2n_3v3_0/a_n6524_n498# 5_bit_dac_0[0]/4_bit_dac_0[0]/3_bit_dac_0[1]/2_bit_dac_0[1]/switch2n_3v3_0/R_H VSS sky130_fd_pr__nfet_g5v0d10v5 ad=0 pd=0 as=0.578 ps=5.32 w=0.5 l=0.5
X105 5_bit_dac_0[0]/4_bit_dac_0[0]/3_bit_dac_0[1]/2_bit_dac_0[1]/switch2n_3v3_0/R_H 5_bit_dac_0[0]/4_bit_dac_0[0]/3_bit_dac_0[1]/2_bit_dac_0[0]/D0 5_bit_dac_0[0]/4_bit_dac_0[0]/3_bit_dac_0[1]/2_bit_dac_0[1]/switch2n_3v3_0/VOUTH VCC sky130_fd_pr__pfet_g5v0d10v5 ad=0.29 pd=2.58 as=0 ps=0 w=1 l=0.5
X106 5_bit_dac_0[0]/4_bit_dac_0[0]/3_bit_dac_0[1]/2_bit_dac_0[1]/switch2n_3v3_0/R_H 5_bit_dac_0[0]/4_bit_dac_0[0]/3_bit_dac_0[1]/2_bit_dac_0[1]/switch2n_3v3_0/R_L VSS sky130_fd_pr__res_generic_nd__hv w=0.42 l=2.1
X107 5_bit_dac_0[0]/4_bit_dac_0[0]/3_bit_dac_0[1]/2_bit_dac_0[1]/switch2n_3v3_0/R_L 5_bit_dac_0[0]/4_bit_dac_0[1]/VREFH VSS sky130_fd_pr__res_generic_nd__hv w=0.42 l=2.1
X108 5_bit_dac_0[0]/4_bit_dac_0[0]/3_bit_dac_0[1]/2_bit_dac_0[1]/switch2n_3v3_0/R_L 5_bit_dac_0[0]/4_bit_dac_0[0]/3_bit_dac_0[1]/2_bit_dac_0[0]/D0 5_bit_dac_0[0]/4_bit_dac_0[0]/3_bit_dac_0[1]/2_bit_dac_0[1]/switch2n_3v3_0/VOUTL VSS sky130_fd_pr__nfet_g5v0d10v5 ad=0.578 pd=5.32 as=0 ps=0 w=0.5 l=0.5
X109 5_bit_dac_0[0]/4_bit_dac_0[0]/3_bit_dac_0[1]/2_bit_dac_0[0]/D0 5_bit_dac_0[0]/4_bit_dac_0[0]/3_bit_dac_0[1]/2_bit_dac_0[1]/switch2n_3v3_0/a_n6524_n498# VCC VCC sky130_fd_pr__pfet_g5v0d10v5 ad=0.29 pd=2.58 as=0 ps=0 w=1 l=0.5
X110 5_bit_dac_0[0]/4_bit_dac_0[0]/3_bit_dac_0[1]/2_bit_dac_0[1]/switch2n_3v3_0/a_n6524_n498# 5_bit_dac_0[0]/4_bit_dac_0[0]/D0 VCC VCC sky130_fd_pr__pfet_g5v0d10v5 ad=0.29 pd=2.58 as=0 ps=0 w=1 l=0.5
X111 5_bit_dac_0[0]/4_bit_dac_0[0]/3_bit_dac_0[1]/2_bit_dac_0[1]/switch2n_3v3_0/VOUTL 5_bit_dac_0[0]/4_bit_dac_0[0]/3_bit_dac_0[1]/2_bit_dac_0[1]/switch2n_3v3_0/a_n6524_n498# 5_bit_dac_0[0]/4_bit_dac_0[0]/3_bit_dac_0[1]/2_bit_dac_0[1]/switch2n_3v3_0/R_L VCC sky130_fd_pr__pfet_g5v0d10v5 ad=0 pd=0 as=0.29 ps=2.58 w=1 l=0.5
X112 5_bit_dac_0[0]/4_bit_dac_0[0]/3_bit_dac_0[1]/VOUT 5_bit_dac_0[0]/4_bit_dac_0[0]/switch_n_3v3_0/D2 5_bit_dac_0[0]/4_bit_dac_0[0]/3_bit_dac_0[1]/2_bit_dac_0[0]/VOUT VSS sky130_fd_pr__nfet_g5v0d10v5 ad=0.435 pd=4.74 as=0 ps=0 w=0.5 l=0.5
X113 5_bit_dac_0[0]/4_bit_dac_0[0]/3_bit_dac_0[1]/switch_n_3v3_1/DX_ 5_bit_dac_0[0]/switch_n_3v3_0/D2 VCC VCC sky130_fd_pr__pfet_g5v0d10v5 ad=0.29 pd=2.58 as=0 ps=0 w=1 l=0.5
X114 5_bit_dac_0[0]/4_bit_dac_0[0]/switch_n_3v3_0/D2 5_bit_dac_0[0]/4_bit_dac_0[0]/3_bit_dac_0[1]/switch_n_3v3_1/DX_ VCC VCC sky130_fd_pr__pfet_g5v0d10v5 ad=0.29 pd=2.58 as=0 ps=0 w=1 l=0.5
X115 5_bit_dac_0[0]/4_bit_dac_0[0]/3_bit_dac_0[1]/VOUT 5_bit_dac_0[0]/4_bit_dac_0[0]/switch_n_3v3_0/D2 5_bit_dac_0[0]/4_bit_dac_0[0]/3_bit_dac_0[1]/2_bit_dac_0[1]/VOUT VCC sky130_fd_pr__pfet_g5v0d10v5 ad=0.87 pd=7.74 as=0 ps=0 w=1 l=0.5
X116 5_bit_dac_0[0]/4_bit_dac_0[0]/3_bit_dac_0[1]/switch_n_3v3_1/DX_ 5_bit_dac_0[0]/switch_n_3v3_0/D2 VSS VSS sky130_fd_pr__nfet_g5v0d10v5 ad=0.145 pd=1.58 as=0 ps=0 w=0.5 l=0.5
X117 5_bit_dac_0[0]/4_bit_dac_0[0]/3_bit_dac_0[1]/2_bit_dac_0[1]/VOUT 5_bit_dac_0[0]/4_bit_dac_0[0]/3_bit_dac_0[1]/switch_n_3v3_1/DX_ 5_bit_dac_0[0]/4_bit_dac_0[0]/3_bit_dac_0[1]/VOUT VSS sky130_fd_pr__nfet_g5v0d10v5 ad=0 pd=0 as=0 ps=0 w=0.5 l=0.5
X118 5_bit_dac_0[0]/4_bit_dac_0[0]/switch_n_3v3_0/D2 5_bit_dac_0[0]/4_bit_dac_0[0]/3_bit_dac_0[1]/switch_n_3v3_1/DX_ VSS VSS sky130_fd_pr__nfet_g5v0d10v5 ad=0.145 pd=1.58 as=0 ps=0 w=0.5 l=0.5
X119 5_bit_dac_0[0]/4_bit_dac_0[0]/3_bit_dac_0[1]/2_bit_dac_0[0]/VOUT 5_bit_dac_0[0]/4_bit_dac_0[0]/3_bit_dac_0[1]/switch_n_3v3_1/DX_ 5_bit_dac_0[0]/4_bit_dac_0[0]/3_bit_dac_0[1]/VOUT VCC sky130_fd_pr__pfet_g5v0d10v5 ad=0 pd=0 as=0 ps=0 w=1 l=0.5
X120 5_bit_dac_0[0]/4_bit_dac_0[0]/VOUT D3_BUF 5_bit_dac_0[0]/4_bit_dac_0[0]/3_bit_dac_0[0]/VOUT VSS sky130_fd_pr__nfet_g5v0d10v5 ad=0.435 pd=4.74 as=0 ps=0 w=0.5 l=0.5
X121 5_bit_dac_0[0]/4_bit_dac_0[0]/switch_n_3v3_0/DX_ 5_bit_dac_0[0]/switch_n_3v3_0/D3 VCC VCC sky130_fd_pr__pfet_g5v0d10v5 ad=0.29 pd=2.58 as=0 ps=0 w=1 l=0.5
X122 D3_BUF 5_bit_dac_0[0]/4_bit_dac_0[0]/switch_n_3v3_0/DX_ VCC VCC sky130_fd_pr__pfet_g5v0d10v5 ad=0.29 pd=2.58 as=0 ps=0 w=1 l=0.5
X123 5_bit_dac_0[0]/4_bit_dac_0[0]/VOUT D3_BUF 5_bit_dac_0[0]/4_bit_dac_0[0]/3_bit_dac_0[1]/VOUT VCC sky130_fd_pr__pfet_g5v0d10v5 ad=0.87 pd=7.74 as=0 ps=0 w=1 l=0.5
X124 5_bit_dac_0[0]/4_bit_dac_0[0]/switch_n_3v3_0/DX_ 5_bit_dac_0[0]/switch_n_3v3_0/D3 VSS VSS sky130_fd_pr__nfet_g5v0d10v5 ad=0.145 pd=1.58 as=0 ps=0 w=0.5 l=0.5
X125 5_bit_dac_0[0]/4_bit_dac_0[0]/3_bit_dac_0[1]/VOUT 5_bit_dac_0[0]/4_bit_dac_0[0]/switch_n_3v3_0/DX_ 5_bit_dac_0[0]/4_bit_dac_0[0]/VOUT VSS sky130_fd_pr__nfet_g5v0d10v5 ad=0 pd=0 as=0 ps=0 w=0.5 l=0.5
X126 D3_BUF 5_bit_dac_0[0]/4_bit_dac_0[0]/switch_n_3v3_0/DX_ VSS VSS sky130_fd_pr__nfet_g5v0d10v5 ad=0.145 pd=1.58 as=0 ps=0 w=0.5 l=0.5
X127 5_bit_dac_0[0]/4_bit_dac_0[0]/3_bit_dac_0[0]/VOUT 5_bit_dac_0[0]/4_bit_dac_0[0]/switch_n_3v3_0/DX_ 5_bit_dac_0[0]/4_bit_dac_0[0]/VOUT VCC sky130_fd_pr__pfet_g5v0d10v5 ad=0 pd=0 as=0 ps=0 w=1 l=0.5