* SPICE3 file created from 7_bit_dac.ext - technology: sky130A

.subckt x7_bit_dac VCC VSS D0 VREFL D1 D2 D3 D4 D5 D6 D0_BUF VREFH D1_BUF D2_BUF D3_BUF
+ D4_BUF D5_BUF D6_BUF VOUT
X0 6_bit_dac_0[0]/VOUT D5_BUF 6_bit_dac_0[0]/5_bit_dac_0[0]/VOUT VSS sky130_fd_pr__nfet_g5v0d10v5 ad=0.145 pd=1.58 as=0.145 ps=1.58 w=0.5 l=0.5
X1 6_bit_dac_0[0]/switch_n_3v3_0/DX_ switch_n_3v3_1/D5 VCC VCC sky130_fd_pr__pfet_g5v0d10v5 ad=0.29 pd=2.58 as=0.29 ps=2.58 w=1 l=0.5
X2 D5_BUF 6_bit_dac_0[0]/switch_n_3v3_0/DX_ VCC VCC sky130_fd_pr__pfet_g5v0d10v5 ad=0.29 pd=2.58 as=0.29 ps=2.58 w=1 l=0.5
X3 6_bit_dac_0[0]/VOUT D5_BUF 6_bit_dac_0[0]/5_bit_dac_0[1]/VOUT VCC sky130_fd_pr__pfet_g5v0d10v5 ad=0.29 pd=2.58 as=0.29 ps=2.58 w=1 l=0.5
X4 6_bit_dac_0[0]/switch_n_3v3_0/DX_ switch_n_3v3_1/D5 VSS VSS sky130_fd_pr__nfet_g5v0d10v5 ad=0.145 pd=1.58 as=0.145 ps=1.58 w=0.5 l=0.5
X5 6_bit_dac_0[0]/5_bit_dac_0[1]/VOUT 6_bit_dac_0[0]/switch_n_3v3_0/DX_ 6_bit_dac_0[0]/VOUT VSS sky130_fd_pr__nfet_g5v0d10v5 ad=0.145 pd=1.58 as=0.145 ps=1.58 w=0.5 l=0.5
X6 D5_BUF 6_bit_dac_0[0]/switch_n_3v3_0/DX_ VSS VSS sky130_fd_pr__nfet_g5v0d10v5 ad=0.145 pd=1.58 as=0.145 ps=1.58 w=0.5 l=0.5
X7 6_bit_dac_0[0]/5_bit_dac_0[0]/VOUT 6_bit_dac_0[0]/switch_n_3v3_0/DX_ 6_bit_dac_0[0]/VOUT VCC sky130_fd_pr__pfet_g5v0d10v5 ad=0.29 pd=2.58 as=0.29 ps=2.58 w=1 l=0.5
X8 6_bit_dac_0[0]/5_bit_dac_0[0]/4_bit_dac_0[0]/3_bit_dac_0[0]/2_bit_dac_0[0]/VOUT D1_BUF 6_bit_dac_0[0]/5_bit_dac_0[0]/4_bit_dac_0[0]/3_bit_dac_0[0]/2_bit_dac_0[0]/switch2n_3v3_0/VOUTH VSS sky130_fd_pr__nfet_g5v0d10v5 ad=0.145 pd=1.58 as=0.145 ps=1.58 w=0.5 l=0.5
X9 6_bit_dac_0[0]/5_bit_dac_0[0]/4_bit_dac_0[0]/3_bit_dac_0[0]/2_bit_dac_0[0]/switch_n_3v3_v2_0/DX_ 6_bit_dac_0[0]/5_bit_dac_0[0]/4_bit_dac_0[0]/3_bit_dac_0[0]/2_bit_dac_0[0]/D1 VCC VCC sky130_fd_pr__pfet_g5v0d10v5 ad=0.29 pd=2.58 as=0.29 ps=2.58 w=1 l=0.5
X10 D1_BUF 6_bit_dac_0[0]/5_bit_dac_0[0]/4_bit_dac_0[0]/3_bit_dac_0[0]/2_bit_dac_0[0]/switch_n_3v3_v2_0/DX_ VCC VCC sky130_fd_pr__pfet_g5v0d10v5 ad=0.29 pd=2.58 as=0.29 ps=2.58 w=1 l=0.5
X11 6_bit_dac_0[0]/5_bit_dac_0[0]/4_bit_dac_0[0]/3_bit_dac_0[0]/2_bit_dac_0[0]/VOUT D1_BUF 6_bit_dac_0[0]/5_bit_dac_0[0]/4_bit_dac_0[0]/3_bit_dac_0[0]/2_bit_dac_0[0]/switch2n_3v3_0/VOUTL VCC sky130_fd_pr__pfet_g5v0d10v5 ad=0.29 pd=2.58 as=0.29 ps=2.58 w=1 l=0.5
X12 6_bit_dac_0[0]/5_bit_dac_0[0]/4_bit_dac_0[0]/3_bit_dac_0[0]/2_bit_dac_0[0]/switch_n_3v3_v2_0/DX_ 6_bit_dac_0[0]/5_bit_dac_0[0]/4_bit_dac_0[0]/3_bit_dac_0[0]/2_bit_dac_0[0]/D1 VSS VSS sky130_fd_pr__nfet_g5v0d10v5 ad=0.145 pd=1.58 as=0.145 ps=1.58 w=0.5 l=0.5
X13 6_bit_dac_0[0]/5_bit_dac_0[0]/4_bit_dac_0[0]/3_bit_dac_0[0]/2_bit_dac_0[0]/switch2n_3v3_0/VOUTL 6_bit_dac_0[0]/5_bit_dac_0[0]/4_bit_dac_0[0]/3_bit_dac_0[0]/2_bit_dac_0[0]/switch_n_3v3_v2_0/DX_ 6_bit_dac_0[0]/5_bit_dac_0[0]/4_bit_dac_0[0]/3_bit_dac_0[0]/2_bit_dac_0[0]/VOUT VSS sky130_fd_pr__nfet_g5v0d10v5 ad=0.145 pd=1.58 as=0.145 ps=1.58 w=0.5 l=0.5
X14 D1_BUF 6_bit_dac_0[0]/5_bit_dac_0[0]/4_bit_dac_0[0]/3_bit_dac_0[0]/2_bit_dac_0[0]/switch_n_3v3_v2_0/DX_ VSS VSS sky130_fd_pr__nfet_g5v0d10v5 ad=0.145 pd=1.58 as=0.145 ps=1.58 w=0.5 l=0.5
X15 6_bit_dac_0[0]/5_bit_dac_0[0]/4_bit_dac_0[0]/3_bit_dac_0[0]/2_bit_dac_0[0]/switch2n_3v3_0/VOUTH 6_bit_dac_0[0]/5_bit_dac_0[0]/4_bit_dac_0[0]/3_bit_dac_0[0]/2_bit_dac_0[0]/switch_n_3v3_v2_0/DX_ 6_bit_dac_0[0]/5_bit_dac_0[0]/4_bit_dac_0[0]/3_bit_dac_0[0]/2_bit_dac_0[0]/VOUT VCC sky130_fd_pr__pfet_g5v0d10v5 ad=0.29 pd=2.58 as=0.29 ps=2.58 w=1 l=0.5
X16 6_bit_dac_0[0]/5_bit_dac_0[0]/4_bit_dac_0[0]/3_bit_dac_0[0]/2_bit_dac_0[0]/switch2n_3v3_0/VOUTH 6_bit_dac_0[0]/5_bit_dac_0[0]/4_bit_dac_0[0]/3_bit_dac_0[0]/2_bit_dac_0[0]/switch2n_3v3_0/a_n6524_n498# 6_bit_dac_0[0]/5_bit_dac_0[0]/4_bit_dac_0[0]/3_bit_dac_0[0]/2_bit_dac_0[0]/switch2n_3v3_0/VREFH VCC sky130_fd_pr__pfet_g5v0d10v5 ad=0.29 pd=2.58 as=0.29 ps=2.58 w=1 l=0.5
X17 6_bit_dac_0[0]/5_bit_dac_0[0]/4_bit_dac_0[0]/3_bit_dac_0[0]/2_bit_dac_0[0]/switch2n_3v3_0/VREFH D0_BUF 6_bit_dac_0[0]/5_bit_dac_0[0]/4_bit_dac_0[0]/3_bit_dac_0[0]/2_bit_dac_0[0]/switch2n_3v3_0/VOUTH VSS sky130_fd_pr__nfet_g5v0d10v5 ad=0.145 pd=1.58 as=0.145 ps=1.58 w=0.5 l=0.5
X18 6_bit_dac_0[0]/5_bit_dac_0[0]/4_bit_dac_0[0]/3_bit_dac_0[0]/2_bit_dac_0[0]/switch2n_3v3_0/VREFH 6_bit_dac_0[0]/5_bit_dac_0[0]/4_bit_dac_0[0]/3_bit_dac_0[0]/2_bit_dac_0[0]/switch2n_3v3_0/R_H VSS sky130_fd_pr__res_generic_nd__hv w=0.42 l=2.1
X19 D0_BUF 6_bit_dac_0[0]/5_bit_dac_0[0]/4_bit_dac_0[0]/3_bit_dac_0[0]/2_bit_dac_0[0]/switch2n_3v3_0/a_n6524_n498# VSS VSS sky130_fd_pr__nfet_g5v0d10v5 ad=0.145 pd=1.58 as=0.145 ps=1.58 w=0.5 l=0.5
X20 6_bit_dac_0[0]/5_bit_dac_0[0]/4_bit_dac_0[0]/3_bit_dac_0[0]/2_bit_dac_0[1]/VREFH D0_BUF 6_bit_dac_0[0]/5_bit_dac_0[0]/4_bit_dac_0[0]/3_bit_dac_0[0]/2_bit_dac_0[0]/switch2n_3v3_0/VOUTL VCC sky130_fd_pr__pfet_g5v0d10v5 ad=0.29 pd=2.58 as=0.29 ps=2.58 w=1 l=0.5
X21 6_bit_dac_0[0]/5_bit_dac_0[0]/4_bit_dac_0[0]/3_bit_dac_0[0]/2_bit_dac_0[0]/switch2n_3v3_0/VREFH VREFH VSS sky130_fd_pr__res_generic_nd__hv w=0.42 l=2.1
X22 6_bit_dac_0[0]/5_bit_dac_0[0]/4_bit_dac_0[0]/3_bit_dac_0[0]/2_bit_dac_0[0]/switch2n_3v3_0/a_n6524_n498# 6_bit_dac_0[0]/5_bit_dac_0[0]/4_bit_dac_0[0]/3_bit_dac_0[0]/2_bit_dac_0[0]/D0 VSS VSS sky130_fd_pr__nfet_g5v0d10v5 ad=0.145 pd=1.58 as=0.145 ps=1.58 w=0.5 l=0.5
X23 6_bit_dac_0[0]/5_bit_dac_0[0]/4_bit_dac_0[0]/3_bit_dac_0[0]/2_bit_dac_0[0]/switch2n_3v3_0/VOUTL 6_bit_dac_0[0]/5_bit_dac_0[0]/4_bit_dac_0[0]/3_bit_dac_0[0]/2_bit_dac_0[0]/switch2n_3v3_0/a_n6524_n498# 6_bit_dac_0[0]/5_bit_dac_0[0]/4_bit_dac_0[0]/3_bit_dac_0[0]/2_bit_dac_0[1]/VREFH VSS sky130_fd_pr__nfet_g5v0d10v5 ad=0.145 pd=1.58 as=0.145 ps=1.58 w=0.5 l=0.5
X24 6_bit_dac_0[0]/5_bit_dac_0[0]/4_bit_dac_0[0]/3_bit_dac_0[0]/2_bit_dac_0[0]/switch2n_3v3_0/VOUTH 6_bit_dac_0[0]/5_bit_dac_0[0]/4_bit_dac_0[0]/3_bit_dac_0[0]/2_bit_dac_0[0]/switch2n_3v3_0/a_n6524_n498# 6_bit_dac_0[0]/5_bit_dac_0[0]/4_bit_dac_0[0]/3_bit_dac_0[0]/2_bit_dac_0[0]/switch2n_3v3_0/R_H VSS sky130_fd_pr__nfet_g5v0d10v5 ad=0.145 pd=1.58 as=0.145 ps=1.58 w=0.5 l=0.5
X25 6_bit_dac_0[0]/5_bit_dac_0[0]/4_bit_dac_0[0]/3_bit_dac_0[0]/2_bit_dac_0[0]/switch2n_3v3_0/R_H D0_BUF 6_bit_dac_0[0]/5_bit_dac_0[0]/4_bit_dac_0[0]/3_bit_dac_0[0]/2_bit_dac_0[0]/switch2n_3v3_0/VOUTH VCC sky130_fd_pr__pfet_g5v0d10v5 ad=0.29 pd=2.58 as=0.29 ps=2.58 w=1 l=0.5
X26 6_bit_dac_0[0]/5_bit_dac_0[0]/4_bit_dac_0[0]/3_bit_dac_0[0]/2_bit_dac_0[0]/switch2n_3v3_0/R_H 6_bit_dac_0[0]/5_bit_dac_0[0]/4_bit_dac_0[0]/3_bit_dac_0[0]/2_bit_dac_0[0]/switch2n_3v3_0/R_L VSS sky130_fd_pr__res_generic_nd__hv w=0.42 l=2.1
X27 6_bit_dac_0[0]/5_bit_dac_0[0]/4_bit_dac_0[0]/3_bit_dac_0[0]/2_bit_dac_0[0]/switch2n_3v3_0/R_L 6_bit_dac_0[0]/5_bit_dac_0[0]/4_bit_dac_0[0]/3_bit_dac_0[0]/2_bit_dac_0[1]/VREFH VSS sky130_fd_pr__res_generic_nd__hv w=0.42 l=2.1
X28 6_bit_dac_0[0]/5_bit_dac_0[0]/4_bit_dac_0[0]/3_bit_dac_0[0]/2_bit_dac_0[0]/switch2n_3v3_0/R_L D0_BUF 6_bit_dac_0[0]/5_bit_dac_0[0]/4_bit_dac_0[0]/3_bit_dac_0[0]/2_bit_dac_0[0]/switch2n_3v3_0/VOUTL VSS sky130_fd_pr__nfet_g5v0d10v5 ad=0.145 pd=1.58 as=0.145 ps=1.58 w=0.5 l=0.5
X29 D0_BUF 6_bit_dac_0[0]/5_bit_dac_0[0]/4_bit_dac_0[0]/3_bit_dac_0[0]/2_bit_dac_0[0]/switch2n_3v3_0/a_n6524_n498# VCC VCC sky130_fd_pr__pfet_g5v0d10v5 ad=0.29 pd=2.58 as=0.29 ps=2.58 w=1 l=0.5
X30 6_bit_dac_0[0]/5_bit_dac_0[0]/4_bit_dac_0[0]/3_bit_dac_0[0]/2_bit_dac_0[0]/switch2n_3v3_0/a_n6524_n498# 6_bit_dac_0[0]/5_bit_dac_0[0]/4_bit_dac_0[0]/3_bit_dac_0[0]/2_bit_dac_0[0]/D0 VCC VCC sky130_fd_pr__pfet_g5v0d10v5 ad=0.29 pd=2.58 as=0.29 ps=2.58 w=1 l=0.5
X31 6_bit_dac_0[0]/5_bit_dac_0[0]/4_bit_dac_0[0]/3_bit_dac_0[0]/2_bit_dac_0[0]/switch2n_3v3_0/VOUTL 6_bit_dac_0[0]/5_bit_dac_0[0]/4_bit_dac_0[0]/3_bit_dac_0[0]/2_bit_dac_0[0]/switch2n_3v3_0/a_n6524_n498# 6_bit_dac_0[0]/5_bit_dac_0[0]/4_bit_dac_0[0]/3_bit_dac_0[0]/2_bit_dac_0[0]/switch2n_3v3_0/R_L VCC sky130_fd_pr__pfet_g5v0d10v5 ad=0.29 pd=2.58 as=0.29 ps=2.58 w=1 l=0.5
X32 6_bit_dac_0[0]/5_bit_dac_0[0]/4_bit_dac_0[0]/3_bit_dac_0[0]/2_bit_dac_0[1]/VOUT 6_bit_dac_0[0]/5_bit_dac_0[0]/4_bit_dac_0[0]/3_bit_dac_0[0]/2_bit_dac_0[0]/D1 6_bit_dac_0[0]/5_bit_dac_0[0]/4_bit_dac_0[0]/3_bit_dac_0[0]/2_bit_dac_0[1]/switch2n_3v3_0/VOUTH VSS sky130_fd_pr__nfet_g5v0d10v5 ad=0.435 pd=4.74 as=0.435 ps=4.74 w=0.5 l=0.5
X33 6_bit_dac_0[0]/5_bit_dac_0[0]/4_bit_dac_0[0]/3_bit_dac_0[0]/2_bit_dac_0[1]/switch_n_3v3_v2_0/DX_ 6_bit_dac_0[0]/5_bit_dac_0[0]/4_bit_dac_0[0]/3_bit_dac_0[0]/D1 VCC VCC sky130_fd_pr__pfet_g5v0d10v5 ad=0.29 pd=2.58 as=55.1 ps=490 w=1 l=0.5
X34 6_bit_dac_0[0]/5_bit_dac_0[0]/4_bit_dac_0[0]/3_bit_dac_0[0]/2_bit_dac_0[0]/D1 6_bit_dac_0[0]/5_bit_dac_0[0]/4_bit_dac_0[0]/3_bit_dac_0[0]/2_bit_dac_0[1]/switch_n_3v3_v2_0/DX_ VCC VCC sky130_fd_pr__pfet_g5v0d10v5 ad=0.29 pd=2.58 as=0 ps=0 w=1 l=0.5
X35 6_bit_dac_0[0]/5_bit_dac_0[0]/4_bit_dac_0[0]/3_bit_dac_0[0]/2_bit_dac_0[1]/VOUT 6_bit_dac_0[0]/5_bit_dac_0[0]/4_bit_dac_0[0]/3_bit_dac_0[0]/2_bit_dac_0[0]/D1 6_bit_dac_0[0]/5_bit_dac_0[0]/4_bit_dac_0[0]/3_bit_dac_0[0]/2_bit_dac_0[1]/switch2n_3v3_0/VOUTL VCC sky130_fd_pr__pfet_g5v0d10v5 ad=0.87 pd=7.74 as=0.87 ps=7.74 w=1 l=0.5
X36 6_bit_dac_0[0]/5_bit_dac_0[0]/4_bit_dac_0[0]/3_bit_dac_0[0]/2_bit_dac_0[1]/switch_n_3v3_v2_0/DX_ 6_bit_dac_0[0]/5_bit_dac_0[0]/4_bit_dac_0[0]/3_bit_dac_0[0]/D1 VSS VSS sky130_fd_pr__nfet_g5v0d10v5 ad=0.145 pd=1.58 as=27.5 ps=300 w=0.5 l=0.5
X37 6_bit_dac_0[0]/5_bit_dac_0[0]/4_bit_dac_0[0]/3_bit_dac_0[0]/2_bit_dac_0[1]/switch2n_3v3_0/VOUTL 6_bit_dac_0[0]/5_bit_dac_0[0]/4_bit_dac_0[0]/3_bit_dac_0[0]/2_bit_dac_0[1]/switch_n_3v3_v2_0/DX_ 6_bit_dac_0[0]/5_bit_dac_0[0]/4_bit_dac_0[0]/3_bit_dac_0[0]/2_bit_dac_0[1]/VOUT VSS sky130_fd_pr__nfet_g5v0d10v5 ad=0.435 pd=4.74 as=0 ps=0 w=0.5 l=0.5
X38 6_bit_dac_0[0]/5_bit_dac_0[0]/4_bit_dac_0[0]/3_bit_dac_0[0]/2_bit_dac_0[0]/D1 6_bit_dac_0[0]/5_bit_dac_0[0]/4_bit_dac_0[0]/3_bit_dac_0[0]/2_bit_dac_0[1]/switch_n_3v3_v2_0/DX_ VSS VSS sky130_fd_pr__nfet_g5v0d10v5 ad=0.145 pd=1.58 as=0 ps=0 w=0.5 l=0.5
X39 6_bit_dac_0[0]/5_bit_dac_0[0]/4_bit_dac_0[0]/3_bit_dac_0[0]/2_bit_dac_0[1]/switch2n_3v3_0/VOUTH 6_bit_dac_0[0]/5_bit_dac_0[0]/4_bit_dac_0[0]/3_bit_dac_0[0]/2_bit_dac_0[1]/switch_n_3v3_v2_0/DX_ 6_bit_dac_0[0]/5_bit_dac_0[0]/4_bit_dac_0[0]/3_bit_dac_0[0]/2_bit_dac_0[1]/VOUT VCC sky130_fd_pr__pfet_g5v0d10v5 ad=0.87 pd=7.74 as=0 ps=0 w=1 l=0.5
X40 6_bit_dac_0[0]/5_bit_dac_0[0]/4_bit_dac_0[0]/3_bit_dac_0[0]/2_bit_dac_0[1]/switch2n_3v3_0/VOUTH 6_bit_dac_0[0]/5_bit_dac_0[0]/4_bit_dac_0[0]/3_bit_dac_0[0]/2_bit_dac_0[1]/switch2n_3v3_0/a_n6524_n498# 6_bit_dac_0[0]/5_bit_dac_0[0]/4_bit_dac_0[0]/3_bit_dac_0[0]/2_bit_dac_0[1]/switch2n_3v3_0/VREFH VCC sky130_fd_pr__pfet_g5v0d10v5 ad=0 pd=0 as=0.29 ps=2.58 w=1 l=0.5
X41 6_bit_dac_0[0]/5_bit_dac_0[0]/4_bit_dac_0[0]/3_bit_dac_0[0]/2_bit_dac_0[1]/switch2n_3v3_0/VREFH 6_bit_dac_0[0]/5_bit_dac_0[0]/4_bit_dac_0[0]/3_bit_dac_0[0]/2_bit_dac_0[0]/D0 6_bit_dac_0[0]/5_bit_dac_0[0]/4_bit_dac_0[0]/3_bit_dac_0[0]/2_bit_dac_0[1]/switch2n_3v3_0/VOUTH VSS sky130_fd_pr__nfet_g5v0d10v5 ad=0.578 pd=5.32 as=0 ps=0 w=0.5 l=0.5
X42 6_bit_dac_0[0]/5_bit_dac_0[0]/4_bit_dac_0[0]/3_bit_dac_0[0]/2_bit_dac_0[1]/switch2n_3v3_0/VREFH 6_bit_dac_0[0]/5_bit_dac_0[0]/4_bit_dac_0[0]/3_bit_dac_0[0]/2_bit_dac_0[1]/switch2n_3v3_0/R_H VSS sky130_fd_pr__res_generic_nd__hv w=0.42 l=2.1
X43 6_bit_dac_0[0]/5_bit_dac_0[0]/4_bit_dac_0[0]/3_bit_dac_0[0]/2_bit_dac_0[0]/D0 6_bit_dac_0[0]/5_bit_dac_0[0]/4_bit_dac_0[0]/3_bit_dac_0[0]/2_bit_dac_0[1]/switch2n_3v3_0/a_n6524_n498# VSS VSS sky130_fd_pr__nfet_g5v0d10v5 ad=0.145 pd=1.58 as=0 ps=0 w=0.5 l=0.5
X44 6_bit_dac_0[0]/5_bit_dac_0[0]/4_bit_dac_0[0]/3_bit_dac_0[1]/VREFH 6_bit_dac_0[0]/5_bit_dac_0[0]/4_bit_dac_0[0]/3_bit_dac_0[0]/2_bit_dac_0[0]/D0 6_bit_dac_0[0]/5_bit_dac_0[0]/4_bit_dac_0[0]/3_bit_dac_0[0]/2_bit_dac_0[1]/switch2n_3v3_0/VOUTL VCC sky130_fd_pr__pfet_g5v0d10v5 ad=0.29 pd=2.58 as=0 ps=0 w=1 l=0.5
X45 6_bit_dac_0[0]/5_bit_dac_0[0]/4_bit_dac_0[0]/3_bit_dac_0[0]/2_bit_dac_0[1]/switch2n_3v3_0/VREFH 6_bit_dac_0[0]/5_bit_dac_0[0]/4_bit_dac_0[0]/3_bit_dac_0[0]/2_bit_dac_0[1]/VREFH VSS sky130_fd_pr__res_generic_nd__hv w=0.42 l=2.1
X46 6_bit_dac_0[0]/5_bit_dac_0[0]/4_bit_dac_0[0]/3_bit_dac_0[0]/2_bit_dac_0[1]/switch2n_3v3_0/a_n6524_n498# 6_bit_dac_0[0]/5_bit_dac_0[0]/4_bit_dac_0[0]/3_bit_dac_0[0]/D0 VSS VSS sky130_fd_pr__nfet_g5v0d10v5 ad=0.145 pd=1.58 as=0 ps=0 w=0.5 l=0.5
X47 6_bit_dac_0[0]/5_bit_dac_0[0]/4_bit_dac_0[0]/3_bit_dac_0[0]/2_bit_dac_0[1]/switch2n_3v3_0/VOUTL 6_bit_dac_0[0]/5_bit_dac_0[0]/4_bit_dac_0[0]/3_bit_dac_0[0]/2_bit_dac_0[1]/switch2n_3v3_0/a_n6524_n498# 6_bit_dac_0[0]/5_bit_dac_0[0]/4_bit_dac_0[0]/3_bit_dac_0[1]/VREFH VSS sky130_fd_pr__nfet_g5v0d10v5 ad=0 pd=0 as=0.578 ps=5.32 w=0.5 l=0.5
X48 6_bit_dac_0[0]/5_bit_dac_0[0]/4_bit_dac_0[0]/3_bit_dac_0[0]/2_bit_dac_0[1]/switch2n_3v3_0/VOUTH 6_bit_dac_0[0]/5_bit_dac_0[0]/4_bit_dac_0[0]/3_bit_dac_0[0]/2_bit_dac_0[1]/switch2n_3v3_0/a_n6524_n498# 6_bit_dac_0[0]/5_bit_dac_0[0]/4_bit_dac_0[0]/3_bit_dac_0[0]/2_bit_dac_0[1]/switch2n_3v3_0/R_H VSS sky130_fd_pr__nfet_g5v0d10v5 ad=0 pd=0 as=0.578 ps=5.32 w=0.5 l=0.5
X49 6_bit_dac_0[0]/5_bit_dac_0[0]/4_bit_dac_0[0]/3_bit_dac_0[0]/2_bit_dac_0[1]/switch2n_3v3_0/R_H 6_bit_dac_0[0]/5_bit_dac_0[0]/4_bit_dac_0[0]/3_bit_dac_0[0]/2_bit_dac_0[0]/D0 6_bit_dac_0[0]/5_bit_dac_0[0]/4_bit_dac_0[0]/3_bit_dac_0[0]/2_bit_dac_0[1]/switch2n_3v3_0/VOUTH VCC sky130_fd_pr__pfet_g5v0d10v5 ad=0.29 pd=2.58 as=0 ps=0 w=1 l=0.5
X50 6_bit_dac_0[0]/5_bit_dac_0[0]/4_bit_dac_0[0]/3_bit_dac_0[0]/2_bit_dac_0[1]/switch2n_3v3_0/R_H 6_bit_dac_0[0]/5_bit_dac_0[0]/4_bit_dac_0[0]/3_bit_dac_0[0]/2_bit_dac_0[1]/switch2n_3v3_0/R_L VSS sky130_fd_pr__res_generic_nd__hv w=0.42 l=2.1
X51 6_bit_dac_0[0]/5_bit_dac_0[0]/4_bit_dac_0[0]/3_bit_dac_0[0]/2_bit_dac_0[1]/switch2n_3v3_0/R_L 6_bit_dac_0[0]/5_bit_dac_0[0]/4_bit_dac_0[0]/3_bit_dac_0[1]/VREFH VSS sky130_fd_pr__res_generic_nd__hv w=0.42 l=2.1
X52 6_bit_dac_0[0]/5_bit_dac_0[0]/4_bit_dac_0[0]/3_bit_dac_0[0]/2_bit_dac_0[1]/switch2n_3v3_0/R_L 6_bit_dac_0[0]/5_bit_dac_0[0]/4_bit_dac_0[0]/3_bit_dac_0[0]/2_bit_dac_0[0]/D0 6_bit_dac_0[0]/5_bit_dac_0[0]/4_bit_dac_0[0]/3_bit_dac_0[0]/2_bit_dac_0[1]/switch2n_3v3_0/VOUTL VSS sky130_fd_pr__nfet_g5v0d10v5 ad=0.578 pd=5.32 as=0 ps=0 w=0.5 l=0.5
X53 6_bit_dac_0[0]/5_bit_dac_0[0]/4_bit_dac_0[0]/3_bit_dac_0[0]/2_bit_dac_0[0]/D0 6_bit_dac_0[0]/5_bit_dac_0[0]/4_bit_dac_0[0]/3_bit_dac_0[0]/2_bit_dac_0[1]/switch2n_3v3_0/a_n6524_n498# VCC VCC sky130_fd_pr__pfet_g5v0d10v5 ad=0.29 pd=2.58 as=0 ps=0 w=1 l=0.5
X54 6_bit_dac_0[0]/5_bit_dac_0[0]/4_bit_dac_0[0]/3_bit_dac_0[0]/2_bit_dac_0[1]/switch2n_3v3_0/a_n6524_n498# 6_bit_dac_0[0]/5_bit_dac_0[0]/4_bit_dac_0[0]/3_bit_dac_0[0]/D0 VCC VCC sky130_fd_pr__pfet_g5v0d10v5 ad=0.29 pd=2.58 as=0 ps=0 w=1 l=0.5
X55 6_bit_dac_0[0]/5_bit_dac_0[0]/4_bit_dac_0[0]/3_bit_dac_0[0]/2_bit_dac_0[1]/switch2n_3v3_0/VOUTL 6_bit_dac_0[0]/5_bit_dac_0[0]/4_bit_dac_0[0]/3_bit_dac_0[0]/2_bit_dac_0[1]/switch2n_3v3_0/a_n6524_n498# 6_bit_dac_0[0]/5_bit_dac_0[0]/4_bit_dac_0[0]/3_bit_dac_0[0]/2_bit_dac_0[1]/switch2n_3v3_0/R_L VCC sky130_fd_pr__pfet_g5v0d10v5 ad=0 pd=0 as=0.29 ps=2.58 w=1 l=0.5
X56 6_bit_dac_0[0]/5_bit_dac_0[0]/4_bit_dac_0[0]/3_bit_dac_0[0]/VOUT D2_BUF 6_bit_dac_0[0]/5_bit_dac_0[0]/4_bit_dac_0[0]/3_bit_dac_0[0]/2_bit_dac_0[0]/VOUT VSS sky130_fd_pr__nfet_g5v0d10v5 ad=0.435 pd=4.74 as=0.435 ps=4.74 w=0.5 l=0.5
X57 6_bit_dac_0[0]/5_bit_dac_0[0]/4_bit_dac_0[0]/3_bit_dac_0[0]/switch_n_3v3_1/DX_ 6_bit_dac_0[0]/5_bit_dac_0[0]/4_bit_dac_0[0]/switch_n_3v3_0/D2 VCC VCC sky130_fd_pr__pfet_g5v0d10v5 ad=0.29 pd=2.58 as=0 ps=0 w=1 l=0.5
X58 D2_BUF 6_bit_dac_0[0]/5_bit_dac_0[0]/4_bit_dac_0[0]/3_bit_dac_0[0]/switch_n_3v3_1/DX_ VCC VCC sky130_fd_pr__pfet_g5v0d10v5 ad=0.29 pd=2.58 as=0 ps=0 w=1 l=0.5
X59 6_bit_dac_0[0]/5_bit_dac_0[0]/4_bit_dac_0[0]/3_bit_dac_0[0]/VOUT D2_BUF 6_bit_dac_0[0]/5_bit_dac_0[0]/4_bit_dac_0[0]/3_bit_dac_0[0]/2_bit_dac_0[1]/VOUT VCC sky130_fd_pr__pfet_g5v0d10v5 ad=0.87 pd=7.74 as=0 ps=0 w=1 l=0.5
X60 6_bit_dac_0[0]/5_bit_dac_0[0]/4_bit_dac_0[0]/3_bit_dac_0[0]/switch_n_3v3_1/DX_ 6_bit_dac_0[0]/5_bit_dac_0[0]/4_bit_dac_0[0]/switch_n_3v3_0/D2 VSS VSS sky130_fd_pr__nfet_g5v0d10v5 ad=0.145 pd=1.58 as=0 ps=0 w=0.5 l=0.5
X61 6_bit_dac_0[0]/5_bit_dac_0[0]/4_bit_dac_0[0]/3_bit_dac_0[0]/2_bit_dac_0[1]/VOUT 6_bit_dac_0[0]/5_bit_dac_0[0]/4_bit_dac_0[0]/3_bit_dac_0[0]/switch_n_3v3_1/DX_ 6_bit_dac_0[0]/5_bit_dac_0[0]/4_bit_dac_0[0]/3_bit_dac_0[0]/VOUT VSS sky130_fd_pr__nfet_g5v0d10v5 ad=0 pd=0 as=0 ps=0 w=0.5 l=0.5
X62 D2_BUF 6_bit_dac_0[0]/5_bit_dac_0[0]/4_bit_dac_0[0]/3_bit_dac_0[0]/switch_n_3v3_1/DX_ VSS VSS sky130_fd_pr__nfet_g5v0d10v5 ad=0.145 pd=1.58 as=0 ps=0 w=0.5 l=0.5
X63 6_bit_dac_0[0]/5_bit_dac_0[0]/4_bit_dac_0[0]/3_bit_dac_0[0]/2_bit_dac_0[0]/VOUT 6_bit_dac_0[0]/5_bit_dac_0[0]/4_bit_dac_0[0]/3_bit_dac_0[0]/switch_n_3v3_1/DX_ 6_bit_dac_0[0]/5_bit_dac_0[0]/4_bit_dac_0[0]/3_bit_dac_0[0]/VOUT VCC sky130_fd_pr__pfet_g5v0d10v5 ad=0.87 pd=7.74 as=0 ps=0 w=1 l=0.5
X64 6_bit_dac_0[0]/5_bit_dac_0[0]/4_bit_dac_0[0]/3_bit_dac_0[1]/2_bit_dac_0[0]/VOUT 6_bit_dac_0[0]/5_bit_dac_0[0]/4_bit_dac_0[0]/3_bit_dac_0[0]/D1 6_bit_dac_0[0]/5_bit_dac_0[0]/4_bit_dac_0[0]/3_bit_dac_0[1]/2_bit_dac_0[0]/switch2n_3v3_0/VOUTH VSS sky130_fd_pr__nfet_g5v0d10v5 ad=0.435 pd=4.74 as=0.435 ps=4.74 w=0.5 l=0.5
X65 6_bit_dac_0[0]/5_bit_dac_0[0]/4_bit_dac_0[0]/3_bit_dac_0[1]/2_bit_dac_0[0]/switch_n_3v3_v2_0/DX_ 6_bit_dac_0[0]/5_bit_dac_0[0]/4_bit_dac_0[0]/3_bit_dac_0[1]/2_bit_dac_0[0]/D1 VCC VCC sky130_fd_pr__pfet_g5v0d10v5 ad=0.29 pd=2.58 as=0 ps=0 w=1 l=0.5
X66 6_bit_dac_0[0]/5_bit_dac_0[0]/4_bit_dac_0[0]/3_bit_dac_0[0]/D1 6_bit_dac_0[0]/5_bit_dac_0[0]/4_bit_dac_0[0]/3_bit_dac_0[1]/2_bit_dac_0[0]/switch_n_3v3_v2_0/DX_ VCC VCC sky130_fd_pr__pfet_g5v0d10v5 ad=0.29 pd=2.58 as=0 ps=0 w=1 l=0.5
X67 6_bit_dac_0[0]/5_bit_dac_0[0]/4_bit_dac_0[0]/3_bit_dac_0[1]/2_bit_dac_0[0]/VOUT 6_bit_dac_0[0]/5_bit_dac_0[0]/4_bit_dac_0[0]/3_bit_dac_0[0]/D1 6_bit_dac_0[0]/5_bit_dac_0[0]/4_bit_dac_0[0]/3_bit_dac_0[1]/2_bit_dac_0[0]/switch2n_3v3_0/VOUTL VCC sky130_fd_pr__pfet_g5v0d10v5 ad=0.87 pd=7.74 as=0.87 ps=7.74 w=1 l=0.5
X68 6_bit_dac_0[0]/5_bit_dac_0[0]/4_bit_dac_0[0]/3_bit_dac_0[1]/2_bit_dac_0[0]/switch_n_3v3_v2_0/DX_ 6_bit_dac_0[0]/5_bit_dac_0[0]/4_bit_dac_0[0]/3_bit_dac_0[1]/2_bit_dac_0[0]/D1 VSS VSS sky130_fd_pr__nfet_g5v0d10v5 ad=0.145 pd=1.58 as=0 ps=0 w=0.5 l=0.5
X69 6_bit_dac_0[0]/5_bit_dac_0[0]/4_bit_dac_0[0]/3_bit_dac_0[1]/2_bit_dac_0[0]/switch2n_3v3_0/VOUTL 6_bit_dac_0[0]/5_bit_dac_0[0]/4_bit_dac_0[0]/3_bit_dac_0[1]/2_bit_dac_0[0]/switch_n_3v3_v2_0/DX_ 6_bit_dac_0[0]/5_bit_dac_0[0]/4_bit_dac_0[0]/3_bit_dac_0[1]/2_bit_dac_0[0]/VOUT VSS sky130_fd_pr__nfet_g5v0d10v5 ad=0.435 pd=4.74 as=0 ps=0 w=0.5 l=0.5
X70 6_bit_dac_0[0]/5_bit_dac_0[0]/4_bit_dac_0[0]/3_bit_dac_0[0]/D1 6_bit_dac_0[0]/5_bit_dac_0[0]/4_bit_dac_0[0]/3_bit_dac_0[1]/2_bit_dac_0[0]/switch_n_3v3_v2_0/DX_ VSS VSS sky130_fd_pr__nfet_g5v0d10v5 ad=0.145 pd=1.58 as=0 ps=0 w=0.5 l=0.5
X71 6_bit_dac_0[0]/5_bit_dac_0[0]/4_bit_dac_0[0]/3_bit_dac_0[1]/2_bit_dac_0[0]/switch2n_3v3_0/VOUTH 6_bit_dac_0[0]/5_bit_dac_0[0]/4_bit_dac_0[0]/3_bit_dac_0[1]/2_bit_dac_0[0]/switch_n_3v3_v2_0/DX_ 6_bit_dac_0[0]/5_bit_dac_0[0]/4_bit_dac_0[0]/3_bit_dac_0[1]/2_bit_dac_0[0]/VOUT VCC sky130_fd_pr__pfet_g5v0d10v5 ad=0.87 pd=7.74 as=0 ps=0 w=1 l=0.5
X72 6_bit_dac_0[0]/5_bit_dac_0[0]/4_bit_dac_0[0]/3_bit_dac_0[1]/2_bit_dac_0[0]/switch2n_3v3_0/VOUTH 6_bit_dac_0[0]/5_bit_dac_0[0]/4_bit_dac_0[0]/3_bit_dac_0[1]/2_bit_dac_0[0]/switch2n_3v3_0/a_n6524_n498# 6_bit_dac_0[0]/5_bit_dac_0[0]/4_bit_dac_0[0]/3_bit_dac_0[1]/2_bit_dac_0[0]/switch2n_3v3_0/VREFH VCC sky130_fd_pr__pfet_g5v0d10v5 ad=0 pd=0 as=0.29 ps=2.58 w=1 l=0.5
X73 6_bit_dac_0[0]/5_bit_dac_0[0]/4_bit_dac_0[0]/3_bit_dac_0[1]/2_bit_dac_0[0]/switch2n_3v3_0/VREFH 6_bit_dac_0[0]/5_bit_dac_0[0]/4_bit_dac_0[0]/3_bit_dac_0[0]/D0 6_bit_dac_0[0]/5_bit_dac_0[0]/4_bit_dac_0[0]/3_bit_dac_0[1]/2_bit_dac_0[0]/switch2n_3v3_0/VOUTH VSS sky130_fd_pr__nfet_g5v0d10v5 ad=0.578 pd=5.32 as=0 ps=0 w=0.5 l=0.5
X74 6_bit_dac_0[0]/5_bit_dac_0[0]/4_bit_dac_0[0]/3_bit_dac_0[1]/2_bit_dac_0[0]/switch2n_3v3_0/VREFH 6_bit_dac_0[0]/5_bit_dac_0[0]/4_bit_dac_0[0]/3_bit_dac_0[1]/2_bit_dac_0[0]/switch2n_3v3_0/R_H VSS sky130_fd_pr__res_generic_nd__hv w=0.42 l=2.1
X75 6_bit_dac_0[0]/5_bit_dac_0[0]/4_bit_dac_0[0]/3_bit_dac_0[0]/D0 6_bit_dac_0[0]/5_bit_dac_0[0]/4_bit_dac_0[0]/3_bit_dac_0[1]/2_bit_dac_0[0]/switch2n_3v3_0/a_n6524_n498# VSS VSS sky130_fd_pr__nfet_g5v0d10v5 ad=0.145 pd=1.58 as=0 ps=0 w=0.5 l=0.5
X76 6_bit_dac_0[0]/5_bit_dac_0[0]/4_bit_dac_0[0]/3_bit_dac_0[1]/2_bit_dac_0[1]/VREFH 6_bit_dac_0[0]/5_bit_dac_0[0]/4_bit_dac_0[0]/3_bit_dac_0[0]/D0 6_bit_dac_0[0]/5_bit_dac_0[0]/4_bit_dac_0[0]/3_bit_dac_0[1]/2_bit_dac_0[0]/switch2n_3v3_0/VOUTL VCC sky130_fd_pr__pfet_g5v0d10v5 ad=0.29 pd=2.58 as=0 ps=0 w=1 l=0.5
X77 6_bit_dac_0[0]/5_bit_dac_0[0]/4_bit_dac_0[0]/3_bit_dac_0[1]/2_bit_dac_0[0]/switch2n_3v3_0/VREFH 6_bit_dac_0[0]/5_bit_dac_0[0]/4_bit_dac_0[0]/3_bit_dac_0[1]/VREFH VSS sky130_fd_pr__res_generic_nd__hv w=0.42 l=2.1
X78 6_bit_dac_0[0]/5_bit_dac_0[0]/4_bit_dac_0[0]/3_bit_dac_0[1]/2_bit_dac_0[0]/switch2n_3v3_0/a_n6524_n498# 6_bit_dac_0[0]/5_bit_dac_0[0]/4_bit_dac_0[0]/3_bit_dac_0[1]/2_bit_dac_0[0]/D0 VSS VSS sky130_fd_pr__nfet_g5v0d10v5 ad=0.145 pd=1.58 as=0 ps=0 w=0.5 l=0.5
X79 6_bit_dac_0[0]/5_bit_dac_0[0]/4_bit_dac_0[0]/3_bit_dac_0[1]/2_bit_dac_0[0]/switch2n_3v3_0/VOUTL 6_bit_dac_0[0]/5_bit_dac_0[0]/4_bit_dac_0[0]/3_bit_dac_0[1]/2_bit_dac_0[0]/switch2n_3v3_0/a_n6524_n498# 6_bit_dac_0[0]/5_bit_dac_0[0]/4_bit_dac_0[0]/3_bit_dac_0[1]/2_bit_dac_0[1]/VREFH VSS sky130_fd_pr__nfet_g5v0d10v5 ad=0 pd=0 as=0.578 ps=5.32 w=0.5 l=0.5
X80 6_bit_dac_0[0]/5_bit_dac_0[0]/4_bit_dac_0[0]/3_bit_dac_0[1]/2_bit_dac_0[0]/switch2n_3v3_0/VOUTH 6_bit_dac_0[0]/5_bit_dac_0[0]/4_bit_dac_0[0]/3_bit_dac_0[1]/2_bit_dac_0[0]/switch2n_3v3_0/a_n6524_n498# 6_bit_dac_0[0]/5_bit_dac_0[0]/4_bit_dac_0[0]/3_bit_dac_0[1]/2_bit_dac_0[0]/switch2n_3v3_0/R_H VSS sky130_fd_pr__nfet_g5v0d10v5 ad=0 pd=0 as=0.578 ps=5.32 w=0.5 l=0.5
X81 6_bit_dac_0[0]/5_bit_dac_0[0]/4_bit_dac_0[0]/3_bit_dac_0[1]/2_bit_dac_0[0]/switch2n_3v3_0/R_H 6_bit_dac_0[0]/5_bit_dac_0[0]/4_bit_dac_0[0]/3_bit_dac_0[0]/D0 6_bit_dac_0[0]/5_bit_dac_0[0]/4_bit_dac_0[0]/3_bit_dac_0[1]/2_bit_dac_0[0]/switch2n_3v3_0/VOUTH VCC sky130_fd_pr__pfet_g5v0d10v5 ad=0.29 pd=2.58 as=0 ps=0 w=1 l=0.5
X82 6_bit_dac_0[0]/5_bit_dac_0[0]/4_bit_dac_0[0]/3_bit_dac_0[1]/2_bit_dac_0[0]/switch2n_3v3_0/R_H 6_bit_dac_0[0]/5_bit_dac_0[0]/4_bit_dac_0[0]/3_bit_dac_0[1]/2_bit_dac_0[0]/switch2n_3v3_0/R_L VSS sky130_fd_pr__res_generic_nd__hv w=0.42 l=2.1
X83 6_bit_dac_0[0]/5_bit_dac_0[0]/4_bit_dac_0[0]/3_bit_dac_0[1]/2_bit_dac_0[0]/switch2n_3v3_0/R_L 6_bit_dac_0[0]/5_bit_dac_0[0]/4_bit_dac_0[0]/3_bit_dac_0[1]/2_bit_dac_0[1]/VREFH VSS sky130_fd_pr__res_generic_nd__hv w=0.42 l=2.1
X84 6_bit_dac_0[0]/5_bit_dac_0[0]/4_bit_dac_0[0]/3_bit_dac_0[1]/2_bit_dac_0[0]/switch2n_3v3_0/R_L 6_bit_dac_0[0]/5_bit_dac_0[0]/4_bit_dac_0[0]/3_bit_dac_0[0]/D0 6_bit_dac_0[0]/5_bit_dac_0[0]/4_bit_dac_0[0]/3_bit_dac_0[1]/2_bit_dac_0[0]/switch2n_3v3_0/VOUTL VSS sky130_fd_pr__nfet_g5v0d10v5 ad=0.578 pd=5.32 as=0 ps=0 w=0.5 l=0.5
X85 6_bit_dac_0[0]/5_bit_dac_0[0]/4_bit_dac_0[0]/3_bit_dac_0[0]/D0 6_bit_dac_0[0]/5_bit_dac_0[0]/4_bit_dac_0[0]/3_bit_dac_0[1]/2_bit_dac_0[0]/switch2n_3v3_0/a_n6524_n498# VCC VCC sky130_fd_pr__pfet_g5v0d10v5 ad=0.29 pd=2.58 as=0 ps=0 w=1 l=0.5
X86 6_bit_dac_0[0]/5_bit_dac_0[0]/4_bit_dac_0[0]/3_bit_dac_0[1]/2_bit_dac_0[0]/switch2n_3v3_0/a_n6524_n498# 6_bit_dac_0[0]/5_bit_dac_0[0]/4_bit_dac_0[0]/3_bit_dac_0[1]/2_bit_dac_0[0]/D0 VCC VCC sky130_fd_pr__pfet_g5v0d10v5 ad=0.29 pd=2.58 as=0 ps=0 w=1 l=0.5
X87 6_bit_dac_0[0]/5_bit_dac_0[0]/4_bit_dac_0[0]/3_bit_dac_0[1]/2_bit_dac_0[0]/switch2n_3v3_0/VOUTL 6_bit_dac_0[0]/5_bit_dac_0[0]/4_bit_dac_0[0]/3_bit_dac_0[1]/2_bit_dac_0[0]/switch2n_3v3_0/a_n6524_n498# 6_bit_dac_0[0]/5_bit_dac_0[0]/4_bit_dac_0[0]/3_bit_dac_0[1]/2_bit_dac_0[0]/switch2n_3v3_0/R_L VCC sky130_fd_pr__pfet_g5v0d10v5 ad=0 pd=0 as=0.29 ps=2.58 w=1 l=0.5
X88 6_bit_dac_0[0]/5_bit_dac_0[0]/4_bit_dac_0[0]/3_bit_dac_0[1]/2_bit_dac_0[1]/VOUT 6_bit_dac_0[0]/5_bit_dac_0[0]/4_bit_dac_0[0]/3_bit_dac_0[1]/2_bit_dac_0[0]/D1 6_bit_dac_0[0]/5_bit_dac_0[0]/4_bit_dac_0[0]/3_bit_dac_0[1]/2_bit_dac_0[1]/switch2n_3v3_0/VOUTH VSS sky130_fd_pr__nfet_g5v0d10v5 ad=0.435 pd=4.74 as=0.435 ps=4.74 w=0.5 l=0.5
X89 6_bit_dac_0[0]/5_bit_dac_0[0]/4_bit_dac_0[0]/3_bit_dac_0[1]/2_bit_dac_0[1]/switch_n_3v3_v2_0/DX_ 6_bit_dac_0[0]/5_bit_dac_0[0]/4_bit_dac_0[0]/D1 VCC VCC sky130_fd_pr__pfet_g5v0d10v5 ad=0.29 pd=2.58 as=0 ps=0 w=1 l=0.5
X90 6_bit_dac_0[0]/5_bit_dac_0[0]/4_bit_dac_0[0]/3_bit_dac_0[1]/2_bit_dac_0[0]/D1 6_bit_dac_0[0]/5_bit_dac_0[0]/4_bit_dac_0[0]/3_bit_dac_0[1]/2_bit_dac_0[1]/switch_n_3v3_v2_0/DX_ VCC VCC sky130_fd_pr__pfet_g5v0d10v5 ad=0.29 pd=2.58 as=0 ps=0 w=1 l=0.5
X91 6_bit_dac_0[0]/5_bit_dac_0[0]/4_bit_dac_0[0]/3_bit_dac_0[1]/2_bit_dac_0[1]/VOUT 6_bit_dac_0[0]/5_bit_dac_0[0]/4_bit_dac_0[0]/3_bit_dac_0[1]/2_bit_dac_0[0]/D1 6_bit_dac_0[0]/5_bit_dac_0[0]/4_bit_dac_0[0]/3_bit_dac_0[1]/2_bit_dac_0[1]/switch2n_3v3_0/VOUTL VCC sky130_fd_pr__pfet_g5v0d10v5 ad=0.87 pd=7.74 as=0.87 ps=7.74 w=1 l=0.5
X92 6_bit_dac_0[0]/5_bit_dac_0[0]/4_bit_dac_0[0]/3_bit_dac_0[1]/2_bit_dac_0[1]/switch_n_3v3_v2_0/DX_ 6_bit_dac_0[0]/5_bit_dac_0[0]/4_bit_dac_0[0]/D1 VSS VSS sky130_fd_pr__nfet_g5v0d10v5 ad=0.145 pd=1.58 as=0 ps=0 w=0.5 l=0.5
X93 6_bit_dac_0[0]/5_bit_dac_0[0]/4_bit_dac_0[0]/3_bit_dac_0[1]/2_bit_dac_0[1]/switch2n_3v3_0/VOUTL 6_bit_dac_0[0]/5_bit_dac_0[0]/4_bit_dac_0[0]/3_bit_dac_0[1]/2_bit_dac_0[1]/switch_n_3v3_v2_0/DX_ 6_bit_dac_0[0]/5_bit_dac_0[0]/4_bit_dac_0[0]/3_bit_dac_0[1]/2_bit_dac_0[1]/VOUT VSS sky130_fd_pr__nfet_g5v0d10v5 ad=0.435 pd=4.74 as=0 ps=0 w=0.5 l=0.5
X94 6_bit_dac_0[0]/5_bit_dac_0[0]/4_bit_dac_0[0]/3_bit_dac_0[1]/2_bit_dac_0[0]/D1 6_bit_dac_0[0]/5_bit_dac_0[0]/4_bit_dac_0[0]/3_bit_dac_0[1]/2_bit_dac_0[1]/switch_n_3v3_v2_0/DX_ VSS VSS sky130_fd_pr__nfet_g5v0d10v5 ad=0.145 pd=1.58 as=0 ps=0 w=0.5 l=0.5
X95 6_bit_dac_0[0]/5_bit_dac_0[0]/4_bit_dac_0[0]/3_bit_dac_0[1]/2_bit_dac_0[1]/switch2n_3v3_0/VOUTH 6_bit_dac_0[0]/5_bit_dac_0[0]/4_bit_dac_0[0]/3_bit_dac_0[1]/2_bit_dac_0[1]/switch_n_3v3_v2_0/DX_ 6_bit_dac_0[0]/5_bit_dac_0[0]/4_bit_dac_0[0]/3_bit_dac_0[1]/2_bit_dac_0[1]/VOUT VCC sky130_fd_pr__pfet_g5v0d10v5 ad=0.87 pd=7.74 as=0 ps=0 w=1 l=0.5
X96 6_bit_dac_0[0]/5_bit_dac_0[0]/4_bit_dac_0[0]/3_bit_dac_0[1]/2_bit_dac_0[1]/switch2n_3v3_0/VOUTH 6_bit_dac_0[0]/5_bit_dac_0[0]/4_bit_dac_0[0]/3_bit_dac_0[1]/2_bit_dac_0[1]/switch2n_3v3_0/a_n6524_n498# 6_bit_dac_0[0]/5_bit_dac_0[0]/4_bit_dac_0[0]/3_bit_dac_0[1]/2_bit_dac_0[1]/switch2n_3v3_0/VREFH VCC sky130_fd_pr__pfet_g5v0d10v5 ad=0 pd=0 as=0.29 ps=2.58 w=1 l=0.5
X97 6_bit_dac_0[0]/5_bit_dac_0[0]/4_bit_dac_0[0]/3_bit_dac_0[1]/2_bit_dac_0[1]/switch2n_3v3_0/VREFH 6_bit_dac_0[0]/5_bit_dac_0[0]/4_bit_dac_0[0]/3_bit_dac_0[1]/2_bit_dac_0[0]/D0 6_bit_dac_0[0]/5_bit_dac_0[0]/4_bit_dac_0[0]/3_bit_dac_0[1]/2_bit_dac_0[1]/switch2n_3v3_0/VOUTH VSS sky130_fd_pr__nfet_g5v0d10v5 ad=0.578 pd=5.32 as=0 ps=0 w=0.5 l=0.5
X98 6_bit_dac_0[0]/5_bit_dac_0[0]/4_bit_dac_0[0]/3_bit_dac_0[1]/2_bit_dac_0[1]/switch2n_3v3_0/VREFH 6_bit_dac_0[0]/5_bit_dac_0[0]/4_bit_dac_0[0]/3_bit_dac_0[1]/2_bit_dac_0[1]/switch2n_3v3_0/R_H VSS sky130_fd_pr__res_generic_nd__hv w=0.42 l=2.1
X99 6_bit_dac_0[0]/5_bit_dac_0[0]/4_bit_dac_0[0]/3_bit_dac_0[1]/2_bit_dac_0[0]/D0 6_bit_dac_0[0]/5_bit_dac_0[0]/4_bit_dac_0[0]/3_bit_dac_0[1]/2_bit_dac_0[1]/switch2n_3v3_0/a_n6524_n498# VSS VSS sky130_fd_pr__nfet_g5v0d10v5 ad=0.145 pd=1.58 as=0 ps=0 w=0.5 l=0.5
X100 6_bit_dac_0[0]/5_bit_dac_0[0]/4_bit_dac_0[1]/VREFH 6_bit_dac_0[0]/5_bit_dac_0[0]/4_bit_dac_0[0]/3_bit_dac_0[1]/2_bit_dac_0[0]/D0 6_bit_dac_0[0]/5_bit_dac_0[0]/4_bit_dac_0[0]/3_bit_dac_0[1]/2_bit_dac_0[1]/switch2n_3v3_0/VOUTL VCC sky130_fd_pr__pfet_g5v0d10v5 ad=0.29 pd=2.58 as=0 ps=0 w=1 l=0.5
X101 6_bit_dac_0[0]/5_bit_dac_0[0]/4_bit_dac_0[0]/3_bit_dac_0[1]/2_bit_dac_0[1]/switch2n_3v3_0/VREFH 6_bit_dac_0[0]/5_bit_dac_0[0]/4_bit_dac_0[0]/3_bit_dac_0[1]/2_bit_dac_0[1]/VREFH VSS sky130_fd_pr__res_generic_nd__hv w=0.42 l=2.1
X102 6_bit_dac_0[0]/5_bit_dac_0[0]/4_bit_dac_0[0]/3_bit_dac_0[1]/2_bit_dac_0[1]/switch2n_3v3_0/a_n6524_n498# 6_bit_dac_0[0]/5_bit_dac_0[0]/4_bit_dac_0[0]/D0 VSS VSS sky130_fd_pr__nfet_g5v0d10v5 ad=0.145 pd=1.58 as=0 ps=0 w=0.5 l=0.5
X103 6_bit_dac_0[0]/5_bit_dac_0[0]/4_bit_dac_0[0]/3_bit_dac_0[1]/2_bit_dac_0[1]/switch2n_3v3_0/VOUTL 6_bit_dac_0[0]/5_bit_dac_0[0]/4_bit_dac_0[0]/3_bit_dac_0[1]/2_bit_dac_0[1]/switch2n_3v3_0/a_n6524_n498# 6_bit_dac_0[0]/5_bit_dac_0[0]/4_bit_dac_0[1]/VREFH VSS sky130_fd_pr__nfet_g5v0d10v5 ad=0 pd=0 as=0.578 ps=5.32 w=0.5 l=0.5
X104 6_bit_dac_0[0]/5_bit_dac_0[0]/4_bit_dac_0[0]/3_bit_dac_0[1]/2_bit_dac_0[1]/switch2n_3v3_0/VOUTH 6_bit_dac_0[0]/5_bit_dac_0[0]/4_bit_dac_0[0]/3_bit_dac_0[1]/2_bit_dac_0[1]/switch2n_3v3_0/a_n6524_n498# 6_bit_dac_0[0]/5_bit_dac_0[0]/4_bit_dac_0[0]/3_bit_dac_0[1]/2_bit_dac_0[1]/switch2n_3v3_0/R_H VSS sky130_fd_pr__nfet_g5v0d10v5 ad=0 pd=0 as=0.578 ps=5.32 w=0.5 l=0.5
X105 6_bit_dac_0[0]/5_bit_dac_0[0]/4_bit_dac_0[0]/3_bit_dac_0[1]/2_bit_dac_0[1]/switch2n_3v3_0/R_H 6_bit_dac_0[0]/5_bit_dac_0[0]/4_bit_dac_0[0]/3_bit_dac_0[1]/2_bit_dac_0[0]/D0 6_bit_dac_0[0]/5_bit_dac_0[0]/4_bit_dac_0[0]/3_bit_dac_0[1]/2_bit_dac_0[1]/switch2n_3v3_0/VOUTH VCC sky130_fd_pr__pfet_g5v0d10v5 ad=0.29 pd=2.58 as=0 ps=0 w=1 l=0.5
X106 6_bit_dac_0[0]/5_bit_dac_0[0]/4_bit_dac_0[0]/3_bit_dac_0[1]/2_bit_dac_0[1]/switch2n_3v3_0/R_H 6_bit_dac_0[0]/5_bit_dac_0[0]/4_bit_dac_0[0]/3_bit_dac_0[1]/2_bit_dac_0[1]/switch2n_3v3_0/R_L VSS sky130_fd_pr__res_generic_nd__hv w=0.42 l=2.1
X107 6_bit_dac_0[0]/5_bit_dac_0[0]/4_bit_dac_0[0]/3_bit_dac_0[1]/2_bit_dac_0[1]/switch2n_3v3_0/R_L 6_bit_dac_0[0]/5_bit_dac_0[0]/4_bit_dac_0[1]/VREFH VSS sky130_fd_pr__res_generic_nd__hv w=0.42 l=2.1
X108 6_bit_dac_0[0]/5_bit_dac_0[0]/4_bit_dac_0[0]/3_bit_dac_0[1]/2_bit_dac_0[1]/switch2n_3v3_0/R_L 6_bit_dac_0[0]/5_bit_dac_0[0]/4_bit_dac_0[0]/3_bit_dac_0[1]/2_bit_dac_0[0]/D0 6_bit_dac_0[0]/5_bit_dac_0[0]/4_bit_dac_0[0]/3_bit_dac_0[1]/2_bit_dac_0[1]/switch2n_3v3_0/VOUTL VSS sky130_fd_pr__nfet_g5v0d10v5 ad=0.578 pd=5.32 as=0 ps=0 w=0.5 l=0.5