* SPICE3 file created from 8_bit_dac.ext - technology: sky130A

.subckt x8_bit_dac VOUT D2 D3 D4 D5 D6 D7 D1 D0 VREFL D0_BUF VREFH D1_BUF D2_BUF D3_BUF
+ D4_BUF D5_BUF D6_BUF D7_BUF VCC VSS
X0 7_bit_dac_0[0]/6_bit_dac_0[0]/VOUT D5_BUF 7_bit_dac_0[0]/6_bit_dac_0[0]/5_bit_dac_0[0]/VOUT VSS sky130_fd_pr__nfet_g5v0d10v5 ad=0.145 pd=1.58 as=0.145 ps=1.58 w=0.5 l=0.5
X1 7_bit_dac_0[0]/6_bit_dac_0[0]/switch_n_3v3_0/DX_ 7_bit_dac_0[0]/switch_n_3v3_1/D5 VCC VCC sky130_fd_pr__pfet_g5v0d10v5 ad=0.29 pd=2.58 as=0.29 ps=2.58 w=1 l=0.5
X2 D5_BUF 7_bit_dac_0[0]/6_bit_dac_0[0]/switch_n_3v3_0/DX_ VCC VCC sky130_fd_pr__pfet_g5v0d10v5 ad=0.29 pd=2.58 as=0.29 ps=2.58 w=1 l=0.5
X3 7_bit_dac_0[0]/6_bit_dac_0[0]/VOUT D5_BUF 7_bit_dac_0[0]/6_bit_dac_0[0]/5_bit_dac_0[1]/VOUT VCC sky130_fd_pr__pfet_g5v0d10v5 ad=0.29 pd=2.58 as=0.29 ps=2.58 w=1 l=0.5
X4 7_bit_dac_0[0]/6_bit_dac_0[0]/switch_n_3v3_0/DX_ 7_bit_dac_0[0]/switch_n_3v3_1/D5 VSS VSS sky130_fd_pr__nfet_g5v0d10v5 ad=0.145 pd=1.58 as=0.145 ps=1.58 w=0.5 l=0.5
X5 7_bit_dac_0[0]/6_bit_dac_0[0]/5_bit_dac_0[1]/VOUT 7_bit_dac_0[0]/6_bit_dac_0[0]/switch_n_3v3_0/DX_ 7_bit_dac_0[0]/6_bit_dac_0[0]/VOUT VSS sky130_fd_pr__nfet_g5v0d10v5 ad=0.145 pd=1.58 as=0.145 ps=1.58 w=0.5 l=0.5
X6 D5_BUF 7_bit_dac_0[0]/6_bit_dac_0[0]/switch_n_3v3_0/DX_ VSS VSS sky130_fd_pr__nfet_g5v0d10v5 ad=0.145 pd=1.58 as=0.145 ps=1.58 w=0.5 l=0.5
X7 7_bit_dac_0[0]/6_bit_dac_0[0]/5_bit_dac_0[0]/VOUT 7_bit_dac_0[0]/6_bit_dac_0[0]/switch_n_3v3_0/DX_ 7_bit_dac_0[0]/6_bit_dac_0[0]/VOUT VCC sky130_fd_pr__pfet_g5v0d10v5 ad=0.29 pd=2.58 as=0.29 ps=2.58 w=1 l=0.5
X8 7_bit_dac_0[0]/6_bit_dac_0[0]/5_bit_dac_0[0]/4_bit_dac_0[0]/3_bit_dac_0[0]/2_bit_dac_0[0]/VOUT D1_BUF 7_bit_dac_0[0]/6_bit_dac_0[0]/5_bit_dac_0[0]/4_bit_dac_0[0]/3_bit_dac_0[0]/2_bit_dac_0[0]/switch2n_3v3_0/VOUTH VSS sky130_fd_pr__nfet_g5v0d10v5 ad=0.145 pd=1.58 as=0.145 ps=1.58 w=0.5 l=0.5
X9 7_bit_dac_0[0]/6_bit_dac_0[0]/5_bit_dac_0[0]/4_bit_dac_0[0]/3_bit_dac_0[0]/2_bit_dac_0[0]/switch_n_3v3_v2_0/DX_ 7_bit_dac_0[0]/6_bit_dac_0[0]/5_bit_dac_0[0]/4_bit_dac_0[0]/3_bit_dac_0[0]/2_bit_dac_0[0]/D1 VCC VCC sky130_fd_pr__pfet_g5v0d10v5 ad=0.29 pd=2.58 as=0.29 ps=2.58 w=1 l=0.5
X10 D1_BUF 7_bit_dac_0[0]/6_bit_dac_0[0]/5_bit_dac_0[0]/4_bit_dac_0[0]/3_bit_dac_0[0]/2_bit_dac_0[0]/switch_n_3v3_v2_0/DX_ VCC VCC sky130_fd_pr__pfet_g5v0d10v5 ad=0.29 pd=2.58 as=0.29 ps=2.58 w=1 l=0.5
X11 7_bit_dac_0[0]/6_bit_dac_0[0]/5_bit_dac_0[0]/4_bit_dac_0[0]/3_bit_dac_0[0]/2_bit_dac_0[0]/VOUT D1_BUF 7_bit_dac_0[0]/6_bit_dac_0[0]/5_bit_dac_0[0]/4_bit_dac_0[0]/3_bit_dac_0[0]/2_bit_dac_0[0]/switch2n_3v3_0/VOUTL VCC sky130_fd_pr__pfet_g5v0d10v5 ad=0.29 pd=2.58 as=0.29 ps=2.58 w=1 l=0.5
X12 7_bit_dac_0[0]/6_bit_dac_0[0]/5_bit_dac_0[0]/4_bit_dac_0[0]/3_bit_dac_0[0]/2_bit_dac_0[0]/switch_n_3v3_v2_0/DX_ 7_bit_dac_0[0]/6_bit_dac_0[0]/5_bit_dac_0[0]/4_bit_dac_0[0]/3_bit_dac_0[0]/2_bit_dac_0[0]/D1 VSS VSS sky130_fd_pr__nfet_g5v0d10v5 ad=0.145 pd=1.58 as=0.145 ps=1.58 w=0.5 l=0.5
X13 7_bit_dac_0[0]/6_bit_dac_0[0]/5_bit_dac_0[0]/4_bit_dac_0[0]/3_bit_dac_0[0]/2_bit_dac_0[0]/switch2n_3v3_0/VOUTL 7_bit_dac_0[0]/6_bit_dac_0[0]/5_bit_dac_0[0]/4_bit_dac_0[0]/3_bit_dac_0[0]/2_bit_dac_0[0]/switch_n_3v3_v2_0/DX_ 7_bit_dac_0[0]/6_bit_dac_0[0]/5_bit_dac_0[0]/4_bit_dac_0[0]/3_bit_dac_0[0]/2_bit_dac_0[0]/VOUT VSS sky130_fd_pr__nfet_g5v0d10v5 ad=0.145 pd=1.58 as=0.145 ps=1.58 w=0.5 l=0.5
X14 D1_BUF 7_bit_dac_0[0]/6_bit_dac_0[0]/5_bit_dac_0[0]/4_bit_dac_0[0]/3_bit_dac_0[0]/2_bit_dac_0[0]/switch_n_3v3_v2_0/DX_ VSS VSS sky130_fd_pr__nfet_g5v0d10v5 ad=0.145 pd=1.58 as=0.145 ps=1.58 w=0.5 l=0.5
X15 7_bit_dac_0[0]/6_bit_dac_0[0]/5_bit_dac_0[0]/4_bit_dac_0[0]/3_bit_dac_0[0]/2_bit_dac_0[0]/switch2n_3v3_0/VOUTH 7_bit_dac_0[0]/6_bit_dac_0[0]/5_bit_dac_0[0]/4_bit_dac_0[0]/3_bit_dac_0[0]/2_bit_dac_0[0]/switch_n_3v3_v2_0/DX_ 7_bit_dac_0[0]/6_bit_dac_0[0]/5_bit_dac_0[0]/4_bit_dac_0[0]/3_bit_dac_0[0]/2_bit_dac_0[0]/VOUT VCC sky130_fd_pr__pfet_g5v0d10v5 ad=0.29 pd=2.58 as=0.29 ps=2.58 w=1 l=0.5
X16 7_bit_dac_0[0]/6_bit_dac_0[0]/5_bit_dac_0[0]/4_bit_dac_0[0]/3_bit_dac_0[0]/2_bit_dac_0[0]/switch2n_3v3_0/VOUTH 7_bit_dac_0[0]/6_bit_dac_0[0]/5_bit_dac_0[0]/4_bit_dac_0[0]/3_bit_dac_0[0]/2_bit_dac_0[0]/switch2n_3v3_0/a_n6524_n498# 7_bit_dac_0[0]/6_bit_dac_0[0]/5_bit_dac_0[0]/4_bit_dac_0[0]/3_bit_dac_0[0]/2_bit_dac_0[0]/switch2n_3v3_0/VREFH VCC sky130_fd_pr__pfet_g5v0d10v5 ad=0.29 pd=2.58 as=0.29 ps=2.58 w=1 l=0.5
X17 7_bit_dac_0[0]/6_bit_dac_0[0]/5_bit_dac_0[0]/4_bit_dac_0[0]/3_bit_dac_0[0]/2_bit_dac_0[0]/switch2n_3v3_0/VREFH D0_BUF 7_bit_dac_0[0]/6_bit_dac_0[0]/5_bit_dac_0[0]/4_bit_dac_0[0]/3_bit_dac_0[0]/2_bit_dac_0[0]/switch2n_3v3_0/VOUTH VSS sky130_fd_pr__nfet_g5v0d10v5 ad=0.145 pd=1.58 as=0.145 ps=1.58 w=0.5 l=0.5
X18 7_bit_dac_0[0]/6_bit_dac_0[0]/5_bit_dac_0[0]/4_bit_dac_0[0]/3_bit_dac_0[0]/2_bit_dac_0[0]/switch2n_3v3_0/VREFH 7_bit_dac_0[0]/6_bit_dac_0[0]/5_bit_dac_0[0]/4_bit_dac_0[0]/3_bit_dac_0[0]/2_bit_dac_0[0]/switch2n_3v3_0/R_H VSS sky130_fd_pr__res_generic_nd__hv w=0.42 l=2.1
X19 D0_BUF 7_bit_dac_0[0]/6_bit_dac_0[0]/5_bit_dac_0[0]/4_bit_dac_0[0]/3_bit_dac_0[0]/2_bit_dac_0[0]/switch2n_3v3_0/a_n6524_n498# VSS VSS sky130_fd_pr__nfet_g5v0d10v5 ad=0.145 pd=1.58 as=0.145 ps=1.58 w=0.5 l=0.5
X20 7_bit_dac_0[0]/6_bit_dac_0[0]/5_bit_dac_0[0]/4_bit_dac_0[0]/3_bit_dac_0[0]/2_bit_dac_0[1]/VREFH D0_BUF 7_bit_dac_0[0]/6_bit_dac_0[0]/5_bit_dac_0[0]/4_bit_dac_0[0]/3_bit_dac_0[0]/2_bit_dac_0[0]/switch2n_3v3_0/VOUTL VCC sky130_fd_pr__pfet_g5v0d10v5 ad=0.29 pd=2.58 as=0.29 ps=2.58 w=1 l=0.5
X21 7_bit_dac_0[0]/6_bit_dac_0[0]/5_bit_dac_0[0]/4_bit_dac_0[0]/3_bit_dac_0[0]/2_bit_dac_0[0]/switch2n_3v3_0/VREFH VREFH VSS sky130_fd_pr__res_generic_nd__hv w=0.42 l=2.1
X22 7_bit_dac_0[0]/6_bit_dac_0[0]/5_bit_dac_0[0]/4_bit_dac_0[0]/3_bit_dac_0[0]/2_bit_dac_0[0]/switch2n_3v3_0/a_n6524_n498# 7_bit_dac_0[0]/6_bit_dac_0[0]/5_bit_dac_0[0]/4_bit_dac_0[0]/3_bit_dac_0[0]/2_bit_dac_0[0]/D0 VSS VSS sky130_fd_pr__nfet_g5v0d10v5 ad=0.145 pd=1.58 as=0.145 ps=1.58 w=0.5 l=0.5
X23 7_bit_dac_0[0]/6_bit_dac_0[0]/5_bit_dac_0[0]/4_bit_dac_0[0]/3_bit_dac_0[0]/2_bit_dac_0[0]/switch2n_3v3_0/VOUTL 7_bit_dac_0[0]/6_bit_dac_0[0]/5_bit_dac_0[0]/4_bit_dac_0[0]/3_bit_dac_0[0]/2_bit_dac_0[0]/switch2n_3v3_0/a_n6524_n498# 7_bit_dac_0[0]/6_bit_dac_0[0]/5_bit_dac_0[0]/4_bit_dac_0[0]/3_bit_dac_0[0]/2_bit_dac_0[1]/VREFH VSS sky130_fd_pr__nfet_g5v0d10v5 ad=0.145 pd=1.58 as=0.145 ps=1.58 w=0.5 l=0.5
X24 7_bit_dac_0[0]/6_bit_dac_0[0]/5_bit_dac_0[0]/4_bit_dac_0[0]/3_bit_dac_0[0]/2_bit_dac_0[0]/switch2n_3v3_0/VOUTH 7_bit_dac_0[0]/6_bit_dac_0[0]/5_bit_dac_0[0]/4_bit_dac_0[0]/3_bit_dac_0[0]/2_bit_dac_0[0]/switch2n_3v3_0/a_n6524_n498# 7_bit_dac_0[0]/6_bit_dac_0[0]/5_bit_dac_0[0]/4_bit_dac_0[0]/3_bit_dac_0[0]/2_bit_dac_0[0]/switch2n_3v3_0/R_H VSS sky130_fd_pr__nfet_g5v0d10v5 ad=0.145 pd=1.58 as=0.145 ps=1.58 w=0.5 l=0.5
X25 7_bit_dac_0[0]/6_bit_dac_0[0]/5_bit_dac_0[0]/4_bit_dac_0[0]/3_bit_dac_0[0]/2_bit_dac_0[0]/switch2n_3v3_0/R_H D0_BUF 7_bit_dac_0[0]/6_bit_dac_0[0]/5_bit_dac_0[0]/4_bit_dac_0[0]/3_bit_dac_0[0]/2_bit_dac_0[0]/switch2n_3v3_0/VOUTH VCC sky130_fd_pr__pfet_g5v0d10v5 ad=0.29 pd=2.58 as=0.29 ps=2.58 w=1 l=0.5
X26 7_bit_dac_0[0]/6_bit_dac_0[0]/5_bit_dac_0[0]/4_bit_dac_0[0]/3_bit_dac_0[0]/2_bit_dac_0[0]/switch2n_3v3_0/R_H 7_bit_dac_0[0]/6_bit_dac_0[0]/5_bit_dac_0[0]/4_bit_dac_0[0]/3_bit_dac_0[0]/2_bit_dac_0[0]/switch2n_3v3_0/R_L VSS sky130_fd_pr__res_generic_nd__hv w=0.42 l=2.1
X27 7_bit_dac_0[0]/6_bit_dac_0[0]/5_bit_dac_0[0]/4_bit_dac_0[0]/3_bit_dac_0[0]/2_bit_dac_0[0]/switch2n_3v3_0/R_L 7_bit_dac_0[0]/6_bit_dac_0[0]/5_bit_dac_0[0]/4_bit_dac_0[0]/3_bit_dac_0[0]/2_bit_dac_0[1]/VREFH VSS sky130_fd_pr__res_generic_nd__hv w=0.42 l=2.1
X28 7_bit_dac_0[0]/6_bit_dac_0[0]/5_bit_dac_0[0]/4_bit_dac_0[0]/3_bit_dac_0[0]/2_bit_dac_0[0]/switch2n_3v3_0/R_L D0_BUF 7_bit_dac_0[0]/6_bit_dac_0[0]/5_bit_dac_0[0]/4_bit_dac_0[0]/3_bit_dac_0[0]/2_bit_dac_0[0]/switch2n_3v3_0/VOUTL VSS sky130_fd_pr__nfet_g5v0d10v5 ad=0.145 pd=1.58 as=0.145 ps=1.58 w=0.5 l=0.5
X29 D0_BUF 7_bit_dac_0[0]/6_bit_dac_0[0]/5_bit_dac_0[0]/4_bit_dac_0[0]/3_bit_dac_0[0]/2_bit_dac_0[0]/switch2n_3v3_0/a_n6524_n498# VCC VCC sky130_fd_pr__pfet_g5v0d10v5 ad=0.29 pd=2.58 as=0.29 ps=2.58 w=1 l=0.5
X30 7_bit_dac_0[0]/6_bit_dac_0[0]/5_bit_dac_0[0]/4_bit_dac_0[0]/3_bit_dac_0[0]/2_bit_dac_0[0]/switch2n_3v3_0/a_n6524_n498# 7_bit_dac_0[0]/6_bit_dac_0[0]/5_bit_dac_0[0]/4_bit_dac_0[0]/3_bit_dac_0[0]/2_bit_dac_0[0]/D0 VCC VCC sky130_fd_pr__pfet_g5v0d10v5 ad=0.29 pd=2.58 as=0.29 ps=2.58 w=1 l=0.5
X31 7_bit_dac_0[0]/6_bit_dac_0[0]/5_bit_dac_0[0]/4_bit_dac_0[0]/3_bit_dac_0[0]/2_bit_dac_0[0]/switch2n_3v3_0/VOUTL 7_bit_dac_0[0]/6_bit_dac_0[0]/5_bit_dac_0[0]/4_bit_dac_0[0]/3_bit_dac_0[0]/2_bit_dac_0[0]/switch2n_3v3_0/a_n6524_n498# 7_bit_dac_0[0]/6_bit_dac_0[0]/5_bit_dac_0[0]/4_bit_dac_0[0]/3_bit_dac_0[0]/2_bit_dac_0[0]/switch2n_3v3_0/R_L VCC sky130_fd_pr__pfet_g5v0d10v5 ad=0.29 pd=2.58 as=0.29 ps=2.58 w=1 l=0.5
X32 7_bit_dac_0[0]/6_bit_dac_0[0]/5_bit_dac_0[0]/4_bit_dac_0[0]/3_bit_dac_0[0]/2_bit_dac_0[1]/VOUT 7_bit_dac_0[0]/6_bit_dac_0[0]/5_bit_dac_0[0]/4_bit_dac_0[0]/3_bit_dac_0[0]/2_bit_dac_0[0]/D1 7_bit_dac_0[0]/6_bit_dac_0[0]/5_bit_dac_0[0]/4_bit_dac_0[0]/3_bit_dac_0[0]/2_bit_dac_0[1]/switch2n_3v3_0/VOUTH VSS sky130_fd_pr__nfet_g5v0d10v5 ad=0.435 pd=4.74 as=0.435 ps=4.74 w=0.5 l=0.5
X33 7_bit_dac_0[0]/6_bit_dac_0[0]/5_bit_dac_0[0]/4_bit_dac_0[0]/3_bit_dac_0[0]/2_bit_dac_0[1]/switch_n_3v3_v2_0/DX_ 7_bit_dac_0[0]/6_bit_dac_0[0]/5_bit_dac_0[0]/4_bit_dac_0[0]/3_bit_dac_0[0]/D1 VCC VCC sky130_fd_pr__pfet_g5v0d10v5 ad=0.29 pd=2.58 as=111 ps=986 w=1 l=0.5
X34 7_bit_dac_0[0]/6_bit_dac_0[0]/5_bit_dac_0[0]/4_bit_dac_0[0]/3_bit_dac_0[0]/2_bit_dac_0[0]/D1 7_bit_dac_0[0]/6_bit_dac_0[0]/5_bit_dac_0[0]/4_bit_dac_0[0]/3_bit_dac_0[0]/2_bit_dac_0[1]/switch_n_3v3_v2_0/DX_ VCC VCC sky130_fd_pr__pfet_g5v0d10v5 ad=0.29 pd=2.58 as=0 ps=0 w=1 l=0.5
X35 7_bit_dac_0[0]/6_bit_dac_0[0]/5_bit_dac_0[0]/4_bit_dac_0[0]/3_bit_dac_0[0]/2_bit_dac_0[1]/VOUT 7_bit_dac_0[0]/6_bit_dac_0[0]/5_bit_dac_0[0]/4_bit_dac_0[0]/3_bit_dac_0[0]/2_bit_dac_0[0]/D1 7_bit_dac_0[0]/6_bit_dac_0[0]/5_bit_dac_0[0]/4_bit_dac_0[0]/3_bit_dac_0[0]/2_bit_dac_0[1]/switch2n_3v3_0/VOUTL VCC sky130_fd_pr__pfet_g5v0d10v5 ad=0.87 pd=7.74 as=0.87 ps=7.74 w=1 l=0.5
X36 7_bit_dac_0[0]/6_bit_dac_0[0]/5_bit_dac_0[0]/4_bit_dac_0[0]/3_bit_dac_0[0]/2_bit_dac_0[1]/switch_n_3v3_v2_0/DX_ 7_bit_dac_0[0]/6_bit_dac_0[0]/5_bit_dac_0[0]/4_bit_dac_0[0]/3_bit_dac_0[0]/D1 VSS VSS sky130_fd_pr__nfet_g5v0d10v5 ad=0.145 pd=1.58 as=55.4 ps=604 w=0.5 l=0.5
X37 7_bit_dac_0[0]/6_bit_dac_0[0]/5_bit_dac_0[0]/4_bit_dac_0[0]/3_bit_dac_0[0]/2_bit_dac_0[1]/switch2n_3v3_0/VOUTL 7_bit_dac_0[0]/6_bit_dac_0[0]/5_bit_dac_0[0]/4_bit_dac_0[0]/3_bit_dac_0[0]/2_bit_dac_0[1]/switch_n_3v3_v2_0/DX_ 7_bit_dac_0[0]/6_bit_dac_0[0]/5_bit_dac_0[0]/4_bit_dac_0[0]/3_bit_dac_0[0]/2_bit_dac_0[1]/VOUT VSS sky130_fd_pr__nfet_g5v0d10v5 ad=0.435 pd=4.74 as=0 ps=0 w=0.5 l=0.5
X38 7_bit_dac_0[0]/6_bit_dac_0[0]/5_bit_dac_0[0]/4_bit_dac_0[0]/3_bit_dac_0[0]/2_bit_dac_0[0]/D1 7_bit_dac_0[0]/6_bit_dac_0[0]/5_bit_dac_0[0]/4_bit_dac_0[0]/3_bit_dac_0[0]/2_bit_dac_0[1]/switch_n_3v3_v2_0/DX_ VSS VSS sky130_fd_pr__nfet_g5v0d10v5 ad=0.145 pd=1.58 as=0 ps=0 w=0.5 l=0.5
X39 7_bit_dac_0[0]/6_bit_dac_0[0]/5_bit_dac_0[0]/4_bit_dac_0[0]/3_bit_dac_0[0]/2_bit_dac_0[1]/switch2n_3v3_0/VOUTH 7_bit_dac_0[0]/6_bit_dac_0[0]/5_bit_dac_0[0]/4_bit_dac_0[0]/3_bit_dac_0[0]/2_bit_dac_0[1]/switch_n_3v3_v2_0/DX_ 7_bit_dac_0[0]/6_bit_dac_0[0]/5_bit_dac_0[0]/4_bit_dac_0[0]/3_bit_dac_0[0]/2_bit_dac_0[1]/VOUT VCC sky130_fd_pr__pfet_g5v0d10v5 ad=0.87 pd=7.74 as=0 ps=0 w=1 l=0.5
X40 7_bit_dac_0[0]/6_bit_dac_0[0]/5_bit_dac_0[0]/4_bit_dac_0[0]/3_bit_dac_0[0]/2_bit_dac_0[1]/switch2n_3v3_0/VOUTH 7_bit_dac_0[0]/6_bit_dac_0[0]/5_bit_dac_0[0]/4_bit_dac_0[0]/3_bit_dac_0[0]/2_bit_dac_0[1]/switch2n_3v3_0/a_n6524_n498# 7_bit_dac_0[0]/6_bit_dac_0[0]/5_bit_dac_0[0]/4_bit_dac_0[0]/3_bit_dac_0[0]/2_bit_dac_0[1]/switch2n_3v3_0/VREFH VCC sky130_fd_pr__pfet_g5v0d10v5 ad=0 pd=0 as=0.29 ps=2.58 w=1 l=0.5
X41 7_bit_dac_0[0]/6_bit_dac_0[0]/5_bit_dac_0[0]/4_bit_dac_0[0]/3_bit_dac_0[0]/2_bit_dac_0[1]/switch2n_3v3_0/VREFH 7_bit_dac_0[0]/6_bit_dac_0[0]/5_bit_dac_0[0]/4_bit_dac_0[0]/3_bit_dac_0[0]/2_bit_dac_0[0]/D0 7_bit_dac_0[0]/6_bit_dac_0[0]/5_bit_dac_0[0]/4_bit_dac_0[0]/3_bit_dac_0[0]/2_bit_dac_0[1]/switch2n_3v3_0/VOUTH VSS sky130_fd_pr__nfet_g5v0d10v5 ad=0.578 pd=5.32 as=0 ps=0 w=0.5 l=0.5
X42 7_bit_dac_0[0]/6_bit_dac_0[0]/5_bit_dac_0[0]/4_bit_dac_0[0]/3_bit_dac_0[0]/2_bit_dac_0[1]/switch2n_3v3_0/VREFH 7_bit_dac_0[0]/6_bit_dac_0[0]/5_bit_dac_0[0]/4_bit_dac_0[0]/3_bit_dac_0[0]/2_bit_dac_0[1]/switch2n_3v3_0/R_H VSS sky130_fd_pr__res_generic_nd__hv w=0.42 l=2.1
X43 7_bit_dac_0[0]/6_bit_dac_0[0]/5_bit_dac_0[0]/4_bit_dac_0[0]/3_bit_dac_0[0]/2_bit_dac_0[0]/D0 7_bit_dac_0[0]/6_bit_dac_0[0]/5_bit_dac_0[0]/4_bit_dac_0[0]/3_bit_dac_0[0]/2_bit_dac_0[1]/switch2n_3v3_0/a_n6524_n498# VSS VSS sky130_fd_pr__nfet_g5v0d10v5 ad=0.145 pd=1.58 as=0 ps=0 w=0.5 l=0.5
X44 7_bit_dac_0[0]/6_bit_dac_0[0]/5_bit_dac_0[0]/4_bit_dac_0[0]/3_bit_dac_0[1]/VREFH 7_bit_dac_0[0]/6_bit_dac_0[0]/5_bit_dac_0[0]/4_bit_dac_0[0]/3_bit_dac_0[0]/2_bit_dac_0[0]/D0 7_bit_dac_0[0]/6_bit_dac_0[0]/5_bit_dac_0[0]/4_bit_dac_0[0]/3_bit_dac_0[0]/2_bit_dac_0[1]/switch2n_3v3_0/VOUTL VCC sky130_fd_pr__pfet_g5v0d10v5 ad=0.29 pd=2.58 as=0 ps=0 w=1 l=0.5
X45 7_bit_dac_0[0]/6_bit_dac_0[0]/5_bit_dac_0[0]/4_bit_dac_0[0]/3_bit_dac_0[0]/2_bit_dac_0[1]/switch2n_3v3_0/VREFH 7_bit_dac_0[0]/6_bit_dac_0[0]/5_bit_dac_0[0]/4_bit_dac_0[0]/3_bit_dac_0[0]/2_bit_dac_0[1]/VREFH VSS sky130_fd_pr__res_generic_nd__hv w=0.42 l=2.1
X46 7_bit_dac_0[0]/6_bit_dac_0[0]/5_bit_dac_0[0]/4_bit_dac_0[0]/3_bit_dac_0[0]/2_bit_dac_0[1]/switch2n_3v3_0/a_n6524_n498# 7_bit_dac_0[0]/6_bit_dac_0[0]/5_bit_dac_0[0]/4_bit_dac_0[0]/3_bit_dac_0[0]/D0 VSS VSS sky130_fd_pr__nfet_g5v0d10v5 ad=0.145 pd=1.58 as=0 ps=0 w=0.5 l=0.5
X47 7_bit_dac_0[0]/6_bit_dac_0[0]/5_bit_dac_0[0]/4_bit_dac_0[0]/3_bit_dac_0[0]/2_bit_dac_0[1]/switch2n_3v3_0/VOUTL 7_bit_dac_0[0]/6_bit_dac_0[0]/5_bit_dac_0[0]/4_bit_dac_0[0]/3_bit_dac_0[0]/2_bit_dac_0[1]/switch2n_3v3_0/a_n6524_n498# 7_bit_dac_0[0]/6_bit_dac_0[0]/5_bit_dac_0[0]/4_bit_dac_0[0]/3_bit_dac_0[1]/VREFH VSS sky130_fd_pr__nfet_g5v0d10v5 ad=0 pd=0 as=0.578 ps=5.32 w=0.5 l=0.5
X48 7_bit_dac_0[0]/6_bit_dac_0[0]/5_bit_dac_0[0]/4_bit_dac_0[0]/3_bit_dac_0[0]/2_bit_dac_0[1]/switch2n_3v3_0/VOUTH 7_bit_dac_0[0]/6_bit_dac_0[0]/5_bit_dac_0[0]/4_bit_dac_0[0]/3_bit_dac_0[0]/2_bit_dac_0[1]/switch2n_3v3_0/a_n6524_n498# 7_bit_dac_0[0]/6_bit_dac_0[0]/5_bit_dac_0[0]/4_bit_dac_0[0]/3_bit_dac_0[0]/2_bit_dac_0[1]/switch2n_3v3_0/R_H VSS sky130_fd_pr__nfet_g5v0d10v5 ad=0 pd=0 as=0.578 ps=5.32 w=0.5 l=0.5
X49 7_bit_dac_0[0]/6_bit_dac_0[0]/5_bit_dac_0[0]/4_bit_dac_0[0]/3_bit_dac_0[0]/2_bit_dac_0[1]/switch2n_3v3_0/R_H 7_bit_dac_0[0]/6_bit_dac_0[0]/5_bit_dac_0[0]/4_bit_dac_0[0]/3_bit_dac_0[0]/2_bit_dac_0[0]/D0 7_bit_dac_0[0]/6_bit_dac_0[0]/5_bit_dac_0[0]/4_bit_dac_0[0]/3_bit_dac_0[0]/2_bit_dac_0[1]/switch2n_3v3_0/VOUTH VCC sky130_fd_pr__pfet_g5v0d10v5 ad=0.29 pd=2.58 as=0 ps=0 w=1 l=0.5
X50 7_bit_dac_0[0]/6_bit_dac_0[0]/5_bit_dac_0[0]/4_bit_dac_0[0]/3_bit_dac_0[0]/2_bit_dac_0[1]/switch2n_3v3_0/R_H 7_bit_dac_0[0]/6_bit_dac_0[0]/5_bit_dac_0[0]/4_bit_dac_0[0]/3_bit_dac_0[0]/2_bit_dac_0[1]/switch2n_3v3_0/R_L VSS sky130_fd_pr__res_generic_nd__hv w=0.42 l=2.1
X51 7_bit_dac_0[0]/6_bit_dac_0[0]/5_bit_dac_0[0]/4_bit_dac_0[0]/3_bit_dac_0[0]/2_bit_dac_0[1]/switch2n_3v3_0/R_L 7_bit_dac_0[0]/6_bit_dac_0[0]/5_bit_dac_0[0]/4_bit_dac_0[0]/3_bit_dac_0[1]/VREFH VSS sky130_fd_pr__res_generic_nd__hv w=0.42 l=2.1
X52 7_bit_dac_0[0]/6_bit_dac_0[0]/5_bit_dac_0[0]/4_bit_dac_0[0]/3_bit_dac_0[0]/2_bit_dac_0[1]/switch2n_3v3_0/R_L 7_bit_dac_0[0]/6_bit_dac_0[0]/5_bit_dac_0[0]/4_bit_dac_0[0]/3_bit_dac_0[0]/2_bit_dac_0[0]/D0 7_bit_dac_0[0]/6_bit_dac_0[0]/5_bit_dac_0[0]/4_bit_dac_0[0]/3_bit_dac_0[0]/2_bit_dac_0[1]/switch2n_3v3_0/VOUTL VSS sky130_fd_pr__nfet_g5v0d10v5 ad=0.578 pd=5.32 as=0 ps=0 w=0.5 l=0.5
X53 7_bit_dac_0[0]/6_bit_dac_0[0]/5_bit_dac_0[0]/4_bit_dac_0[0]/3_bit_dac_0[0]/2_bit_dac_0[0]/D0 7_bit_dac_0[0]/6_bit_dac_0[0]/5_bit_dac_0[0]/4_bit_dac_0[0]/3_bit_dac_0[0]/2_bit_dac_0[1]/switch2n_3v3_0/a_n6524_n498# VCC VCC sky130_fd_pr__pfet_g5v0d10v5 ad=0.29 pd=2.58 as=0 ps=0 w=1 l=0.5
X54 7_bit_dac_0[0]/6_bit_dac_0[0]/5_bit_dac_0[0]/4_bit_dac_0[0]/3_bit_dac_0[0]/2_bit_dac_0[1]/switch2n_3v3_0/a_n6524_n498# 7_bit_dac_0[0]/6_bit_dac_0[0]/5_bit_dac_0[0]/4_bit_dac_0[0]/3_bit_dac_0[0]/D0 VCC VCC sky130_fd_pr__pfet_g5v0d10v5 ad=0.29 pd=2.58 as=0 ps=0 w=1 l=0.5
X55 7_bit_dac_0[0]/6_bit_dac_0[0]/5_bit_dac_0[0]/4_bit_dac_0[0]/3_bit_dac_0[0]/2_bit_dac_0[1]/switch2n_3v3_0/VOUTL 7_bit_dac_0[0]/6_bit_dac_0[0]/5_bit_dac_0[0]/4_bit_dac_0[0]/3_bit_dac_0[0]/2_bit_dac_0[1]/switch2n_3v3_0/a_n6524_n498# 7_bit_dac_0[0]/6_bit_dac_0[0]/5_bit_dac_0[0]/4_bit_dac_0[0]/3_bit_dac_0[0]/2_bit_dac_0[1]/switch2n_3v3_0/R_L VCC sky130_fd_pr__pfet_g5v0d10v5 ad=0 pd=0 as=0.29 ps=2.58 w=1 l=0.5
X56 7_bit_dac_0[0]/6_bit_dac_0[0]/5_bit_dac_0[0]/4_bit_dac_0[0]/3_bit_dac_0[0]/VOUT D2_BUF 7_bit_dac_0[0]/6_bit_dac_0[0]/5_bit_dac_0[0]/4_bit_dac_0[0]/3_bit_dac_0[0]/2_bit_dac_0[0]/VOUT VSS sky130_fd_pr__nfet_g5v0d10v5 ad=0.435 pd=4.74 as=0.435 ps=4.74 w=0.5 l=0.5
X57 7_bit_dac_0[0]/6_bit_dac_0[0]/5_bit_dac_0[0]/4_bit_dac_0[0]/3_bit_dac_0[0]/switch_n_3v3_1/DX_ 7_bit_dac_0[0]/6_bit_dac_0[0]/5_bit_dac_0[0]/4_bit_dac_0[0]/switch_n_3v3_0/D2 VCC VCC sky130_fd_pr__pfet_g5v0d10v5 ad=0.29 pd=2.58 as=0 ps=0 w=1 l=0.5
X58 D2_BUF 7_bit_dac_0[0]/6_bit_dac_0[0]/5_bit_dac_0[0]/4_bit_dac_0[0]/3_bit_dac_0[0]/switch_n_3v3_1/DX_ VCC VCC sky130_fd_pr__pfet_g5v0d10v5 ad=0.29 pd=2.58 as=0 ps=0 w=1 l=0.5
X59 7_bit_dac_0[0]/6_bit_dac_0[0]/5_bit_dac_0[0]/4_bit_dac_0[0]/3_bit_dac_0[0]/VOUT D2_BUF 7_bit_dac_0[0]/6_bit_dac_0[0]/5_bit_dac_0[0]/4_bit_dac_0[0]/3_bit_dac_0[0]/2_bit_dac_0[1]/VOUT VCC sky130_fd_pr__pfet_g5v0d10v5 ad=0.87 pd=7.74 as=0 ps=0 w=1 l=0.5
X60 7_bit_dac_0[0]/6_bit_dac_0[0]/5_bit_dac_0[0]/4_bit_dac_0[0]/3_bit_dac_0[0]/switch_n_3v3_1/DX_ 7_bit_dac_0[0]/6_bit_dac_0[0]/5_bit_dac_0[0]/4_bit_dac_0[0]/switch_n_3v3_0/D2 VSS VSS sky130_fd_pr__nfet_g5v0d10v5 ad=0.145 pd=1.58 as=0 ps=0 w=0.5 l=0.5
X61 7_bit_dac_0[0]/6_bit_dac_0[0]/5_bit_dac_0[0]/4_bit_dac_0[0]/3_bit_dac_0[0]/2_bit_dac_0[1]/VOUT 7_bit_dac_0[0]/6_bit_dac_0[0]/5_bit_dac_0[0]/4_bit_dac_0[0]/3_bit_dac_0[0]/switch_n_3v3_1/DX_ 7_bit_dac_0[0]/6_bit_dac_0[0]/5_bit_dac_0[0]/4_bit_dac_0[0]/3_bit_dac_0[0]/VOUT VSS sky130_fd_pr__nfet_g5v0d10v5 ad=0 pd=0 as=0 ps=0 w=0.5 l=0.5
X62 D2_BUF 7_bit_dac_0[0]/6_bit_dac_0[0]/5_bit_dac_0[0]/4_bit_dac_0[0]/3_bit_dac_0[0]/switch_n_3v3_1/DX_ VSS VSS sky130_fd_pr__nfet_g5v0d10v5 ad=0.145 pd=1.58 as=0 ps=0 w=0.5 l=0.5
X63 7_bit_dac_0[0]/6_bit_dac_0[0]/5_bit_dac_0[0]/4_bit_dac_0[0]/3_bit_dac_0[0]/2_bit_dac_0[0]/VOUT 7_bit_dac_0[0]/6_bit_dac_0[0]/5_bit_dac_0[0]/4_bit_dac_0[0]/3_bit_dac_0[0]/switch_n_3v3_1/DX_ 7_bit_dac_0[0]/6_bit_dac_0[0]/5_bit_dac_0[0]/4_bit_dac_0[0]/3_bit_dac_0[0]/VOUT VCC sky130_fd_pr__pfet_g5v0d10v5 ad=0.87 pd=7.74 as=0 ps=0 w=1 l=0.5
X64 7_bit_dac_0[0]/6_bit_dac_0[0]/5_bit_dac_0[0]/4_bit_dac_0[0]/3_bit_dac_0[1]/2_bit_dac_0[0]/VOUT 7_bit_dac_0[0]/6_bit_dac_0[0]/5_bit_dac_0[0]/4_bit_dac_0[0]/3_bit_dac_0[0]/D1 7_bit_dac_0[0]/6_bit_dac_0[0]/5_bit_dac_0[0]/4_bit_dac_0[0]/3_bit_dac_0[1]/2_bit_dac_0[0]/switch2n_3v3_0/VOUTH VSS sky130_fd_pr__nfet_g5v0d10v5 ad=0.435 pd=4.74 as=0.435 ps=4.74 w=0.5 l=0.5
X65 7_bit_dac_0[0]/6_bit_dac_0[0]/5_bit_dac_0[0]/4_bit_dac_0[0]/3_bit_dac_0[1]/2_bit_dac_0[0]/switch_n_3v3_v2_0/DX_ 7_bit_dac_0[0]/6_bit_dac_0[0]/5_bit_dac_0[0]/4_bit_dac_0[0]/3_bit_dac_0[1]/2_bit_dac_0[0]/D1 VCC VCC sky130_fd_pr__pfet_g5v0d10v5 ad=0.29 pd=2.58 as=0 ps=0 w=1 l=0.5
X66 7_bit_dac_0[0]/6_bit_dac_0[0]/5_bit_dac_0[0]/4_bit_dac_0[0]/3_bit_dac_0[0]/D1 7_bit_dac_0[0]/6_bit_dac_0[0]/5_bit_dac_0[0]/4_bit_dac_0[0]/3_bit_dac_0[1]/2_bit_dac_0[0]/switch_n_3v3_v2_0/DX_ VCC VCC sky130_fd_pr__pfet_g5v0d10v5 ad=0.29 pd=2.58 as=0 ps=0 w=1 l=0.5
X67 7_bit_dac_0[0]/6_bit_dac_0[0]/5_bit_dac_0[0]/4_bit_dac_0[0]/3_bit_dac_0[1]/2_bit_dac_0[0]/VOUT 7_bit_dac_0[0]/6_bit_dac_0[0]/5_bit_dac_0[0]/4_bit_dac_0[0]/3_bit_dac_0[0]/D1 7_bit_dac_0[0]/6_bit_dac_0[0]/5_bit_dac_0[0]/4_bit_dac_0[0]/3_bit_dac_0[1]/2_bit_dac_0[0]/switch2n_3v3_0/VOUTL VCC sky130_fd_pr__pfet_g5v0d10v5 ad=0.87 pd=7.74 as=0.87 ps=7.74 w=1 l=0.5
X68 7_bit_dac_0[0]/6_bit_dac_0[0]/5_bit_dac_0[0]/4_bit_dac_0[0]/3_bit_dac_0[1]/2_bit_dac_0[0]/switch_n_3v3_v2_0/DX_ 7_bit_dac_0[0]/6_bit_dac_0[0]/5_bit_dac_0[0]/4_bit_dac_0[0]/3_bit_dac_0[1]/2_bit_dac_0[0]/D1 VSS VSS sky130_fd_pr__nfet_g5v0d10v5 ad=0.145 pd=1.58 as=0 ps=0 w=0.5 l=0.5
X69 7_bit_dac_0[0]/6_bit_dac_0[0]/5_bit_dac_0[0]/4_bit_dac_0[0]/3_bit_dac_0[1]/2_bit_dac_0[0]/switch2n_3v3_0/VOUTL 7_bit_dac_0[0]/6_bit_dac_0[0]/5_bit_dac_0[0]/4_bit_dac_0[0]/3_bit_dac_0[1]/2_bit_dac_0[0]/switch_n_3v3_v2_0/DX_ 7_bit_dac_0[0]/6_bit_dac_0[0]/5_bit_dac_0[0]/4_bit_dac_0[0]/3_bit_dac_0[1]/2_bit_dac_0[0]/VOUT VSS sky130_fd_pr__nfet_g5v0d10v5 ad=0.435 pd=4.74 as=0 ps=0 w=0.5 l=0.5
X70 7_bit_dac_0[0]/6_bit_dac_0[0]/5_bit_dac_0[0]/4_bit_dac_0[0]/3_bit_dac_0[0]/D1 7_bit_dac_0[0]/6_bit_dac_0[0]/5_bit_dac_0[0]/4_bit_dac_0[0]/3_bit_dac_0[1]/2_bit_dac_0[0]/switch_n_3v3_v2_0/DX_ VSS VSS sky130_fd_pr__nfet_g5v0d10v5 ad=0.145 pd=1.58 as=0 ps=0 w=0.5 l=0.5
X71 7_bit_dac_0[0]/6_bit_dac_0[0]/5_bit_dac_0[0]/4_bit_dac_0[0]/3_bit_dac_0[1]/2_bit_dac_0[0]/switch2n_3v3_0/VOUTH 7_bit_dac_0[0]/6_bit_dac_0[0]/5_bit_dac_0[0]/4_bit_dac_0[0]/3_bit_dac_0[1]/2_bit_dac_0[0]/switch_n_3v3_v2_0/DX_ 7_bit_dac_0[0]/6_bit_dac_0[0]/5_bit_dac_0[0]/4_bit_dac_0[0]/3_bit_dac_0[1]/2_bit_dac_0[0]/VOUT VCC sky130_fd_pr__pfet_g5v0d10v5 ad=0.87 pd=7.74 as=0 ps=0 w=1 l=0.5
X72 7_bit_dac_0[0]/6_bit_dac_0[0]/5_bit_dac_0[0]/4_bit_dac_0[0]/3_bit_dac_0[1]/2_bit_dac_0[0]/switch2n_3v3_0/VOUTH 7_bit_dac_0[0]/6_bit_dac_0[0]/5_bit_dac_0[0]/4_bit_dac_0[0]/3_bit_dac_0[1]/2_bit_dac_0[0]/switch2n_3v3_0/a_n6524_n498# 7_bit_dac_0[0]/6_bit_dac_0[0]/5_bit_dac_0[0]/4_bit_dac_0[0]/3_bit_dac_0[1]/2_bit_dac_0[0]/switch2n_3v3_0/VREFH VCC sky130_fd_pr__pfet_g5v0d10v5 ad=0 pd=0 as=0.29 ps=2.58 w=1 l=0.5
X73 7_bit_dac_0[0]/6_bit_dac_0[0]/5_bit_dac_0[0]/4_bit_dac_0[0]/3_bit_dac_0[1]/2_bit_dac_0[0]/switch2n_3v3_0/VREFH 7_bit_dac_0[0]/6_bit_dac_0[0]/5_bit_dac_0[0]/4_bit_dac_0[0]/3_bit_dac_0[0]/D0 7_bit_dac_0[0]/6_bit_dac_0[0]/5_bit_dac_0[0]/4_bit_dac_0[0]/3_bit_dac_0[1]/2_bit_dac_0[0]/switch2n_3v3_0/VOUTH VSS sky130_fd_pr__nfet_g5v0d10v5 ad=0.578 pd=5.32 as=0 ps=0 w=0.5 l=0.5
X74 7_bit_dac_0[0]/6_bit_dac_0[0]/5_bit_dac_0[0]/4_bit_dac_0[0]/3_bit_dac_0[1]/2_bit_dac_0[0]/switch2n_3v3_0/VREFH 7_bit_dac_0[0]/6_bit_dac_0[0]/5_bit_dac_0[0]/4_bit_dac_0[0]/3_bit_dac_0[1]/2_bit_dac_0[0]/switch2n_3v3_0/R_H VSS sky130_fd_pr__res_generic_nd__hv w=0.42 l=2.1
X75 7_bit_dac_0[0]/6_bit_dac_0[0]/5_bit_dac_0[0]/4_bit_dac_0[0]/3_bit_dac_0[0]/D0 7_bit_dac_0[0]/6_bit_dac_0[0]/5_bit_dac_0[0]/4_bit_dac_0[0]/3_bit_dac_0[1]/2_bit_dac_0[0]/switch2n_3v3_0/a_n6524_n498# VSS VSS sky130_fd_pr__nfet_g5v0d10v5 ad=0.145 pd=1.58 as=0 ps=0 w=0.5 l=0.5
X76 7_bit_dac_0[0]/6_bit_dac_0[0]/5_bit_dac_0[0]/4_bit_dac_0[0]/3_bit_dac_0[1]/2_bit_dac_0[1]/VREFH 7_bit_dac_0[0]/6_bit_dac_0[0]/5_bit_dac_0[0]/4_bit_dac_0[0]/3_bit_dac_0[0]/D0 7_bit_dac_0[0]/6_bit_dac_0[0]/5_bit_dac_0[0]/4_bit_dac_0[0]/3_bit_dac_0[1]/2_bit_dac_0[0]/switch2n_3v3_0/VOUTL VCC sky130_fd_pr__pfet_g5v0d10v5 ad=0.29 pd=2.58 as=0 ps=0 w=1 l=0.5
X77 7_bit_dac_0[0]/6_bit_dac_0[0]/5_bit_dac_0[0]/4_bit_dac_0[0]/3_bit_dac_0[1]/2_bit_dac_0[0]/switch2n_3v3_0/VREFH 7_bit_dac_0[0]/6_bit_dac_0[0]/5_bit_dac_0[0]/4_bit_dac_0[0]/3_bit_dac_0[1]/VREFH VSS sky130_fd_pr__res_generic_nd__hv w=0.42 l=2.1
X78 7_bit_dac_0[0]/6_bit_dac_0[0]/5_bit_dac_0[0]/4_bit_dac_0[0]/3_bit_dac_0[1]/2_bit_dac_0[0]/switch2n_3v3_0/a_n6524_n498# 7_bit_dac_0[0]/6_bit_dac_0[0]/5_bit_dac_0[0]/4_bit_dac_0[0]/3_bit_dac_0[1]/2_bit_dac_0[0]/D0 VSS VSS sky130_fd_pr__nfet_g5v0d10v5 ad=0.145 pd=1.58 as=0 ps=0 w=0.5 l=0.5
X79 7_bit_dac_0[0]/6_bit_dac_0[0]/5_bit_dac_0[0]/4_bit_dac_0[0]/3_bit_dac_0[1]/2_bit_dac_0[0]/switch2n_3v3_0/VOUTL 7_bit_dac_0[0]/6_bit_dac_0[0]/5_bit_dac_0[0]/4_bit_dac_0[0]/3_bit_dac_0[1]/2_bit_dac_0[0]/switch2n_3v3_0/a_n6524_n498# 7_bit_dac_0[0]/6_bit_dac_0[0]/5_bit_dac_0[0]/4_bit_dac_0[0]/3_bit_dac_0[1]/2_bit_dac_0[1]/VREFH VSS sky130_fd_pr__nfet_g5v0d10v5 ad=0 pd=0 as=0.578 ps=5.32 w=0.5 l=0.5
X80 7_bit_dac_0[0]/6_bit_dac_0[0]/5_bit_dac_0[0]/4_bit_dac_0[0]/3_bit_dac_0[1]/2_bit_dac_0[0]/switch2n_3v3_0/VOUTH 7_bit_dac_0[0]/6_bit_dac_0[0]/5_bit_dac_0[0]/4_bit_dac_0[0]/3_bit_dac_0[1]/2_bit_dac_0[0]/switch2n_3v3_0/a_n6524_n498# 7_bit_dac_0[0]/6_bit_dac_0[0]/5_bit_dac_0[0]/4_bit_dac_0[0]/3_bit_dac_0[1]/2_bit_dac_0[0]/switch2n_3v3_0/R_H VSS sky130_fd_pr__nfet_g5v0d10v5 ad=0 pd=0 as=0.578 ps=5.32 w=0.5 l=0.5
X81 7_bit_dac_0[0]/6_bit_dac_0[0]/5_bit_dac_0[0]/4_bit_dac_0[0]/3_bit_dac_0[1]/2_bit_dac_0[0]/switch2n_3v3_0/R_H 7_bit_dac_0[0]/6_bit_dac_0[0]/5_bit_dac_0[0]/4_bit_dac_0[0]/3_bit_dac_0[0]/D0 7_bit_dac_0[0]/6_bit_dac_0[0]/5_bit_dac_0[0]/4_bit_dac_0[0]/3_bit_dac_0[1]/2_bit_dac_0[0]/switch2n_3v3_0/VOUTH VCC sky130_fd_pr__pfet_g5v0d10v5 ad=0.29 pd=2.58 as=0 ps=0 w=1 l=0.5
X82 7_bit_dac_0[0]/6_bit_dac_0[0]/5_bit_dac_0[0]/4_bit_dac_0[0]/3_bit_dac_0[1]/2_bit_dac_0[0]/switch2n_3v3_0/R_H 7_bit_dac_0[0]/6_bit_dac_0[0]/5_bit_dac_0[0]/4_bit_dac_0[0]/3_bit_dac_0[1]/2_bit_dac_0[0]/switch2n_3v3_0/R_L VSS sky130_fd_pr__res_generic_nd__hv w=0.42 l=2.1
X83 7_bit_dac_0[0]/6_bit_dac_0[0]/5_bit_dac_0[0]/4_bit_dac_0[0]/3_bit_dac_0[1]/2_bit_dac_0[0]/switch2n_3v3_0/R_L 7_bit_dac_0[0]/6_bit_dac_0[0]/5_bit_dac_0[0]/4_bit_dac_0[0]/3_bit_dac_0[1]/2_bit_dac_0[1]/VREFH VSS sky130_fd_pr__res_generic_nd__hv w=0.42 l=2.1
X84 7_bit_dac_0[0]/6_bit_dac_0[0]/5_bit_dac_0[0]/4_bit_dac_0[0]/3_bit_dac_0[1]/2_bit_dac_0[0]/switch2n_3v3_0/R_L 7_bit_dac_0[0]/6_bit_dac_0[0]/5_bit_dac_0[0]/4_bit_dac_0[0]/3_bit_dac_0[0]/D0 7_bit_dac_0[0]/6_bit_dac_0[0]/5_bit_dac_0[0]/4_bit_dac_0[0]/3_bit_dac_0[1]/2_bit_dac_0[0]/switch2n_3v3_0/VOUTL VSS sky130_fd_pr__nfet_g5v0d10v5 ad=0.578 pd=5.32 as=0 ps=0 w=0.5 l=0.5
X85 7_bit_dac_0[0]/6_bit_dac_0[0]/5_bit_dac_0[0]/4_bit_dac_0[0]/3_bit_dac_0[0]/D0 7_bit_dac_0[0]/6_bit_dac_0[0]/5_bit_dac_0[0]/4_bit_dac_0[0]/3_bit_dac_0[1]/2_bit_dac_0[0]/switch2n_3v3_0/a_n6524_n498# VCC VCC sky130_fd_pr__pfet_g5v0d10v5 ad=0.29 pd=2.58 as=0 ps=0 w=1 l=0.5
X86 7_bit_dac_0[0]/6_bit_dac_0[0]/5_bit_dac_0[0]/4_bit_dac_0[0]/3_bit_dac_0[1]/2_bit_dac_0[0]/switch2n_3v3_0/a_n6524_n498# 7_bit_dac_0[0]/6_bit_dac_0[0]/5_bit_dac_0[0]/4_bit_dac_0[0]/3_bit_dac_0[1]/2_bit_dac_0[0]/D0 VCC VCC sky130_fd_pr__pfet_g5v0d10v5 ad=0.29 pd=2.58 as=0 ps=0 w=1 l=0.5
X87 7_bit_dac_0[0]/6_bit_dac_0[0]/5_bit_dac_0[0]/4_bit_dac_0[0]/3_bit_dac_0[1]/2_bit_dac_0[0]/switch2n_3v3_0/VOUTL 7_bit_dac_0[0]/6_bit_dac_0[0]/5_bit_dac_0[0]/4_bit_dac_0[0]/3_bit_dac_0[1]/2_bit_dac_0[0]/switch2n_3v3_0/a_n6524_n498# 7_bit_dac_0[0]/6_bit_dac_0[0]/5_bit_dac_0[0]/4_bit_dac_0[0]/3_bit_dac_0[1]/2_bit_dac_0[0]/switch2n_3v3_0/R_L VCC sky130_fd_pr__pfet_g5v0d10v5 ad=0 pd=0 as=0.29 ps=2.58 w=1 l=0.5
X88 7_bit_dac_0[0]/6_bit_dac_0[0]/5_bit_dac_0[0]/4_bit_dac_0[0]/3_bit_dac_0[1]/2_bit_dac_0[1]/VOUT 7_bit_dac_0[0]/6_bit_dac_0[0]/5_bit_dac_0[0]/4_bit_dac_0[0]/3_bit_dac_0[1]/2_bit_dac_0[0]/D1 7_bit_dac_0[0]/6_bit_dac_0[0]/5_bit_dac_0[0]/4_bit_dac_0[0]/3_bit_dac_0[1]/2_bit_dac_0[1]/switch2n_3v3_0/VOUTH VSS sky130_fd_pr__nfet_g5v0d10v5 ad=0.435 pd=4.74 as=0.435 ps=4.74 w=0.5 l=0.5
X89 7_bit_dac_0[0]/6_bit_dac_0[0]/5_bit_dac_0[0]/4_bit_dac_0[0]/3_bit_dac_0[1]/2_bit_dac_0[1]/switch_n_3v3_v2_0/DX_ 7_bit_dac_0[0]/6_bit_dac_0[0]/5_bit_dac_0[0]/4_bit_dac_0[0]/D1 VCC VCC sky130_fd_pr__pfet_g5v0d10v5 ad=0.29 pd=2.58 as=0 ps=0 w=1 l=0.5
X90 7_bit_dac_0[0]/6_bit_dac_0[0]/5_bit_dac_0[0]/4_bit_dac_0[0]/3_bit_dac_0[1]/2_bit_dac_0[0]/D1 7_bit_dac_0[0]/6_bit_dac_0[0]/5_bit_dac_0[0]/4_bit_dac_0[0]/3_bit_dac_0[1]/2_bit_dac_0[1]/switch_n_3v3_v2_0/DX_ VCC VCC sky130_fd_pr__pfet_g5v0d10v5 ad=0.29 pd=2.58 as=0 ps=0 w=1 l=0.5
X91 7_bit_dac_0[0]/6_bit_dac_0[0]/5_bit_dac_0[0]/4_bit_dac_0[0]/3_bit_dac_0[1]/2_bit_dac_0[1]/VOUT 7_bit_dac_0[0]/6_bit_dac_0[0]/5_bit_dac_0[0]/4_bit_dac_0[0]/3_bit_dac_0[1]/2_bit_dac_0[0]/D1 7_bit_dac_0[0]/6_bit_dac_0[0]/5_bit_dac_0[0]/4_bit_dac_0[0]/3_bit_dac_0[1]/2_bit_dac_0[1]/switch2n_3v3_0/VOUTL VCC sky130_fd_pr__pfet_g5v0d10v5 ad=0.87 pd=7.74 as=0.87 ps=7.74 w=1 l=0.5
X92 7_bit_dac_0[0]/6_bit_dac_0[0]/5_bit_dac_0[0]/4_bit_dac_0[0]/3_bit_dac_0[1]/2_bit_dac_0[1]/switch_n_3v3_v2_0/DX_ 7_bit_dac_0[0]/6_bit_dac_0[0]/5_bit_dac_0[0]/4_bit_dac_0[0]/D1 VSS VSS sky130_fd_pr__nfet_g5v0d10v5 ad=0.145 pd=1.58 as=0 ps=0 w=0.5 l=0.5
X93 7_bit_dac_0[0]/6_bit_dac_0[0]/5_bit_dac_0[0]/4_bit_dac_0[0]/3_bit_dac_0[1]/2_bit_dac_0[1]/switch2n_3v3_0/VOUTL 7_bit_dac_0[0]/6_bit_dac_0[0]/5_bit_dac_0[0]/4_bit_dac_0[0]/3_bit_dac_0[1]/2_bit_dac_0[1]/switch_n_3v3_v2_0/DX_ 7_bit_dac_0[0]/6_bit_dac_0[0]/5_bit_dac_0[0]/4_bit_dac_0[0]/3_bit_dac_0[1]/2_bit_dac_0[1]/VOUT VSS sky130_fd_pr__nfet_g5v0d10v5 ad=0.435 pd=4.74 as=0 ps=0 w=0.5 l=0.5
X94 7_bit_dac_0[0]/6_bit_dac_0[0]/5_bit_dac_0[0]/4_bit_dac_0[0]/3_bit_dac_0[1]/2_bit_dac_0[0]/D1 7_bit_dac_0[0]/6_bit_dac_0[0]/5_bit_dac_0[0]/4_bit_dac_0[0]/3_bit_dac_0[1]/2_bit_dac_0[1]/switch_n_3v3_v2_0/DX_ VSS VSS sky130_fd_pr__nfet_g5v0d10v5 ad=0.145 pd=1.58 as=0 ps=0 w=0.5 l=0.5
X95 7_bit_dac_0[0]/6_bit_dac_0[0]/5_bit_dac_0[0]/4_bit_dac_0[0]/3_bit_dac_0[1]/2_bit_dac_0[1]/switch2n_3v3_0/VOUTH 7_bit_dac_0[0]/6_bit_dac_0[0]/5_bit_dac_0[0]/4_bit_dac_0[0]/3_bit_dac_0[1]/2_bit_dac_0[1]/switch_n_3v3_v2_0/DX_ 7_bit_dac_0[0]/6_bit_dac_0[0]/5_bit_dac_0[0]/4_bit_dac_0[0]/3_bit_dac_0[1]/2_bit_dac_0[1]/VOUT VCC sky130_fd_pr__pfet_g5v0d10v5 ad=0.87 pd=7.74 as=0 ps=0 w=1 l=0.5
X96 7_bit_dac_0[0]/6_bit_dac_0[0]/5_bit_dac_0[0]/4_bit_dac_0[0]/3_bit_dac_0[1]/2_bit_dac_0[1]/switch2n_3v3_0/VOUTH 7_bit_dac_0[0]/6_bit_dac_0[0]/5_bit_dac_0[0]/4_bit_dac_0[0]/3_bit_dac_0[1]/2_bit_dac_0[1]/switch2n_3v3_0/a_n6524_n498# 7_bit_dac_0[0]/6_bit_dac_0[0]/5_bit_dac_0[0]/4_bit_dac_0[0]/3_bit_dac_0[1]/2_bit_dac_0[1]/switch2n_3v3_0/VREFH VCC sky130_fd_pr__pfet_g5v0d10v5 ad=0 pd=0 as=0.29 ps=2.58 w=1 l=0.5