* SPICE3 file created from 4x8bit_tx_buffer.ext - technology: sky130A

.subckt x4x8bit_tx_buffer D00 D01 D02 D03 D04 D05 D06 D07 D10 D11 D12 D13 D14 D15
+ D16 D17 D20 D21 D22 D23 D24 D25 D26 D27 D30 D31 D32 D33 D34 D35 D36 D37 VCCD VDDA
+ VOUT0 VOUT1 VOUT2 VOUT3 VREFH VREFL VSSA VSSD
X0 2x8bit_tx_buffer_0[0]/8_bit_dac_tx_buffer_v2_0[0]/8_bit_dac_0/7_bit_dac_0[0]/6_bit_dac_0[0]/VOUT 2x8bit_tx_buffer_0[0]/8_bit_dac_tx_buffer_v2_0[0]/8_bit_dac_0/D5_BUF 2x8bit_tx_buffer_0[0]/8_bit_dac_tx_buffer_v2_0[0]/8_bit_dac_0/7_bit_dac_0[0]/6_bit_dac_0[0]/5_bit_dac_0[0]/VOUT VSSA sky130_fd_pr__nfet_g5v0d10v5 ad=0.145 pd=1.58 as=0.145 ps=1.58 w=0.5 l=0.5
X1 2x8bit_tx_buffer_0[0]/8_bit_dac_tx_buffer_v2_0[0]/8_bit_dac_0/7_bit_dac_0[0]/6_bit_dac_0[0]/switch_n_3v3_0/DX_ 2x8bit_tx_buffer_0[0]/8_bit_dac_tx_buffer_v2_0[0]/8_bit_dac_0/7_bit_dac_0[0]/switch_n_3v3_1/D5 VDDA VDDA sky130_fd_pr__pfet_g5v0d10v5 ad=0.29 pd=2.58 as=0.29 ps=2.58 w=1 l=0.5
X2 2x8bit_tx_buffer_0[0]/8_bit_dac_tx_buffer_v2_0[0]/8_bit_dac_0/D5_BUF 2x8bit_tx_buffer_0[0]/8_bit_dac_tx_buffer_v2_0[0]/8_bit_dac_0/7_bit_dac_0[0]/6_bit_dac_0[0]/switch_n_3v3_0/DX_ VDDA VDDA sky130_fd_pr__pfet_g5v0d10v5 ad=0.29 pd=2.58 as=0.29 ps=2.58 w=1 l=0.5
X3 2x8bit_tx_buffer_0[0]/8_bit_dac_tx_buffer_v2_0[0]/8_bit_dac_0/7_bit_dac_0[0]/6_bit_dac_0[0]/VOUT 2x8bit_tx_buffer_0[0]/8_bit_dac_tx_buffer_v2_0[0]/8_bit_dac_0/D5_BUF 2x8bit_tx_buffer_0[0]/8_bit_dac_tx_buffer_v2_0[0]/8_bit_dac_0/7_bit_dac_0[0]/6_bit_dac_0[0]/5_bit_dac_0[1]/VOUT VDDA sky130_fd_pr__pfet_g5v0d10v5 ad=0.29 pd=2.58 as=0.29 ps=2.58 w=1 l=0.5
X4 2x8bit_tx_buffer_0[0]/8_bit_dac_tx_buffer_v2_0[0]/8_bit_dac_0/7_bit_dac_0[0]/6_bit_dac_0[0]/switch_n_3v3_0/DX_ 2x8bit_tx_buffer_0[0]/8_bit_dac_tx_buffer_v2_0[0]/8_bit_dac_0/7_bit_dac_0[0]/switch_n_3v3_1/D5 VSSA VSSA sky130_fd_pr__nfet_g5v0d10v5 ad=0.145 pd=1.58 as=0.145 ps=1.58 w=0.5 l=0.5
X5 2x8bit_tx_buffer_0[0]/8_bit_dac_tx_buffer_v2_0[0]/8_bit_dac_0/7_bit_dac_0[0]/6_bit_dac_0[0]/5_bit_dac_0[1]/VOUT 2x8bit_tx_buffer_0[0]/8_bit_dac_tx_buffer_v2_0[0]/8_bit_dac_0/7_bit_dac_0[0]/6_bit_dac_0[0]/switch_n_3v3_0/DX_ 2x8bit_tx_buffer_0[0]/8_bit_dac_tx_buffer_v2_0[0]/8_bit_dac_0/7_bit_dac_0[0]/6_bit_dac_0[0]/VOUT VSSA sky130_fd_pr__nfet_g5v0d10v5 ad=0.145 pd=1.58 as=0.145 ps=1.58 w=0.5 l=0.5
X6 2x8bit_tx_buffer_0[0]/8_bit_dac_tx_buffer_v2_0[0]/8_bit_dac_0/D5_BUF 2x8bit_tx_buffer_0[0]/8_bit_dac_tx_buffer_v2_0[0]/8_bit_dac_0/7_bit_dac_0[0]/6_bit_dac_0[0]/switch_n_3v3_0/DX_ VSSA VSSA sky130_fd_pr__nfet_g5v0d10v5 ad=0.145 pd=1.58 as=0.145 ps=1.58 w=0.5 l=0.5
X7 2x8bit_tx_buffer_0[0]/8_bit_dac_tx_buffer_v2_0[0]/8_bit_dac_0/7_bit_dac_0[0]/6_bit_dac_0[0]/5_bit_dac_0[0]/VOUT 2x8bit_tx_buffer_0[0]/8_bit_dac_tx_buffer_v2_0[0]/8_bit_dac_0/7_bit_dac_0[0]/6_bit_dac_0[0]/switch_n_3v3_0/DX_ 2x8bit_tx_buffer_0[0]/8_bit_dac_tx_buffer_v2_0[0]/8_bit_dac_0/7_bit_dac_0[0]/6_bit_dac_0[0]/VOUT VDDA sky130_fd_pr__pfet_g5v0d10v5 ad=0.29 pd=2.58 as=0.29 ps=2.58 w=1 l=0.5
X8 2x8bit_tx_buffer_0[0]/8_bit_dac_tx_buffer_v2_0[0]/8_bit_dac_0/7_bit_dac_0[0]/6_bit_dac_0[0]/5_bit_dac_0[0]/4_bit_dac_0[0]/3_bit_dac_0[0]/2_bit_dac_0[0]/VOUT 2x8bit_tx_buffer_0[0]/8_bit_dac_tx_buffer_v2_0[0]/8_bit_dac_0/D1_BUF 2x8bit_tx_buffer_0[0]/8_bit_dac_tx_buffer_v2_0[0]/8_bit_dac_0/7_bit_dac_0[0]/6_bit_dac_0[0]/5_bit_dac_0[0]/4_bit_dac_0[0]/3_bit_dac_0[0]/2_bit_dac_0[0]/switch2n_3v3_0/VOUTH VSSA sky130_fd_pr__nfet_g5v0d10v5 ad=0.145 pd=1.58 as=0.145 ps=1.58 w=0.5 l=0.5
X9 2x8bit_tx_buffer_0[0]/8_bit_dac_tx_buffer_v2_0[0]/8_bit_dac_0/7_bit_dac_0[0]/6_bit_dac_0[0]/5_bit_dac_0[0]/4_bit_dac_0[0]/3_bit_dac_0[0]/2_bit_dac_0[0]/switch_n_3v3_v2_0/DX_ 2x8bit_tx_buffer_0[0]/8_bit_dac_tx_buffer_v2_0[0]/8_bit_dac_0/7_bit_dac_0[0]/6_bit_dac_0[0]/5_bit_dac_0[0]/4_bit_dac_0[0]/3_bit_dac_0[0]/2_bit_dac_0[0]/D1 VDDA VDDA sky130_fd_pr__pfet_g5v0d10v5 ad=0.29 pd=2.58 as=0.29 ps=2.58 w=1 l=0.5
X10 2x8bit_tx_buffer_0[0]/8_bit_dac_tx_buffer_v2_0[0]/8_bit_dac_0/D1_BUF 2x8bit_tx_buffer_0[0]/8_bit_dac_tx_buffer_v2_0[0]/8_bit_dac_0/7_bit_dac_0[0]/6_bit_dac_0[0]/5_bit_dac_0[0]/4_bit_dac_0[0]/3_bit_dac_0[0]/2_bit_dac_0[0]/switch_n_3v3_v2_0/DX_ VDDA VDDA sky130_fd_pr__pfet_g5v0d10v5 ad=0.29 pd=2.58 as=0.29 ps=2.58 w=1 l=0.5
X11 2x8bit_tx_buffer_0[0]/8_bit_dac_tx_buffer_v2_0[0]/8_bit_dac_0/7_bit_dac_0[0]/6_bit_dac_0[0]/5_bit_dac_0[0]/4_bit_dac_0[0]/3_bit_dac_0[0]/2_bit_dac_0[0]/VOUT 2x8bit_tx_buffer_0[0]/8_bit_dac_tx_buffer_v2_0[0]/8_bit_dac_0/D1_BUF 2x8bit_tx_buffer_0[0]/8_bit_dac_tx_buffer_v2_0[0]/8_bit_dac_0/7_bit_dac_0[0]/6_bit_dac_0[0]/5_bit_dac_0[0]/4_bit_dac_0[0]/3_bit_dac_0[0]/2_bit_dac_0[0]/switch2n_3v3_0/VOUTL VDDA sky130_fd_pr__pfet_g5v0d10v5 ad=0.29 pd=2.58 as=0.29 ps=2.58 w=1 l=0.5
X12 2x8bit_tx_buffer_0[0]/8_bit_dac_tx_buffer_v2_0[0]/8_bit_dac_0/7_bit_dac_0[0]/6_bit_dac_0[0]/5_bit_dac_0[0]/4_bit_dac_0[0]/3_bit_dac_0[0]/2_bit_dac_0[0]/switch_n_3v3_v2_0/DX_ 2x8bit_tx_buffer_0[0]/8_bit_dac_tx_buffer_v2_0[0]/8_bit_dac_0/7_bit_dac_0[0]/6_bit_dac_0[0]/5_bit_dac_0[0]/4_bit_dac_0[0]/3_bit_dac_0[0]/2_bit_dac_0[0]/D1 VSSA VSSA sky130_fd_pr__nfet_g5v0d10v5 ad=0.145 pd=1.58 as=0.145 ps=1.58 w=0.5 l=0.5
X13 2x8bit_tx_buffer_0[0]/8_bit_dac_tx_buffer_v2_0[0]/8_bit_dac_0/7_bit_dac_0[0]/6_bit_dac_0[0]/5_bit_dac_0[0]/4_bit_dac_0[0]/3_bit_dac_0[0]/2_bit_dac_0[0]/switch2n_3v3_0/VOUTL 2x8bit_tx_buffer_0[0]/8_bit_dac_tx_buffer_v2_0[0]/8_bit_dac_0/7_bit_dac_0[0]/6_bit_dac_0[0]/5_bit_dac_0[0]/4_bit_dac_0[0]/3_bit_dac_0[0]/2_bit_dac_0[0]/switch_n_3v3_v2_0/DX_ 2x8bit_tx_buffer_0[0]/8_bit_dac_tx_buffer_v2_0[0]/8_bit_dac_0/7_bit_dac_0[0]/6_bit_dac_0[0]/5_bit_dac_0[0]/4_bit_dac_0[0]/3_bit_dac_0[0]/2_bit_dac_0[0]/VOUT VSSA sky130_fd_pr__nfet_g5v0d10v5 ad=0.145 pd=1.58 as=0.145 ps=1.58 w=0.5 l=0.5
X14 2x8bit_tx_buffer_0[0]/8_bit_dac_tx_buffer_v2_0[0]/8_bit_dac_0/D1_BUF 2x8bit_tx_buffer_0[0]/8_bit_dac_tx_buffer_v2_0[0]/8_bit_dac_0/7_bit_dac_0[0]/6_bit_dac_0[0]/5_bit_dac_0[0]/4_bit_dac_0[0]/3_bit_dac_0[0]/2_bit_dac_0[0]/switch_n_3v3_v2_0/DX_ VSSA VSSA sky130_fd_pr__nfet_g5v0d10v5 ad=0.145 pd=1.58 as=0.145 ps=1.58 w=0.5 l=0.5
X15 2x8bit_tx_buffer_0[0]/8_bit_dac_tx_buffer_v2_0[0]/8_bit_dac_0/7_bit_dac_0[0]/6_bit_dac_0[0]/5_bit_dac_0[0]/4_bit_dac_0[0]/3_bit_dac_0[0]/2_bit_dac_0[0]/switch2n_3v3_0/VOUTH 2x8bit_tx_buffer_0[0]/8_bit_dac_tx_buffer_v2_0[0]/8_bit_dac_0/7_bit_dac_0[0]/6_bit_dac_0[0]/5_bit_dac_0[0]/4_bit_dac_0[0]/3_bit_dac_0[0]/2_bit_dac_0[0]/switch_n_3v3_v2_0/DX_ 2x8bit_tx_buffer_0[0]/8_bit_dac_tx_buffer_v2_0[0]/8_bit_dac_0/7_bit_dac_0[0]/6_bit_dac_0[0]/5_bit_dac_0[0]/4_bit_dac_0[0]/3_bit_dac_0[0]/2_bit_dac_0[0]/VOUT VDDA sky130_fd_pr__pfet_g5v0d10v5 ad=0.29 pd=2.58 as=0.29 ps=2.58 w=1 l=0.5
X16 2x8bit_tx_buffer_0[0]/8_bit_dac_tx_buffer_v2_0[0]/8_bit_dac_0/7_bit_dac_0[0]/6_bit_dac_0[0]/5_bit_dac_0[0]/4_bit_dac_0[0]/3_bit_dac_0[0]/2_bit_dac_0[0]/switch2n_3v3_0/VOUTH 2x8bit_tx_buffer_0[0]/8_bit_dac_tx_buffer_v2_0[0]/8_bit_dac_0/7_bit_dac_0[0]/6_bit_dac_0[0]/5_bit_dac_0[0]/4_bit_dac_0[0]/3_bit_dac_0[0]/2_bit_dac_0[0]/switch2n_3v3_0/a_n6524_n498# 2x8bit_tx_buffer_0[0]/8_bit_dac_tx_buffer_v2_0[0]/8_bit_dac_0/7_bit_dac_0[0]/6_bit_dac_0[0]/5_bit_dac_0[0]/4_bit_dac_0[0]/3_bit_dac_0[0]/2_bit_dac_0[0]/switch2n_3v3_0/VREFH VDDA sky130_fd_pr__pfet_g5v0d10v5 ad=0.29 pd=2.58 as=0.29 ps=2.58 w=1 l=0.5
X17 2x8bit_tx_buffer_0[0]/8_bit_dac_tx_buffer_v2_0[0]/8_bit_dac_0/7_bit_dac_0[0]/6_bit_dac_0[0]/5_bit_dac_0[0]/4_bit_dac_0[0]/3_bit_dac_0[0]/2_bit_dac_0[0]/switch2n_3v3_0/VREFH 2x8bit_tx_buffer_0[0]/8_bit_dac_tx_buffer_v2_0[0]/8_bit_dac_0/D0_BUF 2x8bit_tx_buffer_0[0]/8_bit_dac_tx_buffer_v2_0[0]/8_bit_dac_0/7_bit_dac_0[0]/6_bit_dac_0[0]/5_bit_dac_0[0]/4_bit_dac_0[0]/3_bit_dac_0[0]/2_bit_dac_0[0]/switch2n_3v3_0/VOUTH VSSA sky130_fd_pr__nfet_g5v0d10v5 ad=0.145 pd=1.58 as=0.145 ps=1.58 w=0.5 l=0.5
X18 2x8bit_tx_buffer_0[0]/8_bit_dac_tx_buffer_v2_0[0]/8_bit_dac_0/7_bit_dac_0[0]/6_bit_dac_0[0]/5_bit_dac_0[0]/4_bit_dac_0[0]/3_bit_dac_0[0]/2_bit_dac_0[0]/switch2n_3v3_0/VREFH 2x8bit_tx_buffer_0[0]/8_bit_dac_tx_buffer_v2_0[0]/8_bit_dac_0/7_bit_dac_0[0]/6_bit_dac_0[0]/5_bit_dac_0[0]/4_bit_dac_0[0]/3_bit_dac_0[0]/2_bit_dac_0[0]/switch2n_3v3_0/R_H VSSA sky130_fd_pr__res_generic_nd__hv w=0.42 l=2.1
X19 2x8bit_tx_buffer_0[0]/8_bit_dac_tx_buffer_v2_0[0]/8_bit_dac_0/D0_BUF 2x8bit_tx_buffer_0[0]/8_bit_dac_tx_buffer_v2_0[0]/8_bit_dac_0/7_bit_dac_0[0]/6_bit_dac_0[0]/5_bit_dac_0[0]/4_bit_dac_0[0]/3_bit_dac_0[0]/2_bit_dac_0[0]/switch2n_3v3_0/a_n6524_n498# VSSA VSSA sky130_fd_pr__nfet_g5v0d10v5 ad=0.145 pd=1.58 as=0.145 ps=1.58 w=0.5 l=0.5
X20 2x8bit_tx_buffer_0[0]/8_bit_dac_tx_buffer_v2_0[0]/8_bit_dac_0/7_bit_dac_0[0]/6_bit_dac_0[0]/5_bit_dac_0[0]/4_bit_dac_0[0]/3_bit_dac_0[0]/2_bit_dac_0[1]/VREFH 2x8bit_tx_buffer_0[0]/8_bit_dac_tx_buffer_v2_0[0]/8_bit_dac_0/D0_BUF 2x8bit_tx_buffer_0[0]/8_bit_dac_tx_buffer_v2_0[0]/8_bit_dac_0/7_bit_dac_0[0]/6_bit_dac_0[0]/5_bit_dac_0[0]/4_bit_dac_0[0]/3_bit_dac_0[0]/2_bit_dac_0[0]/switch2n_3v3_0/VOUTL VDDA sky130_fd_pr__pfet_g5v0d10v5 ad=0.29 pd=2.58 as=0.29 ps=2.58 w=1 l=0.5
X21 2x8bit_tx_buffer_0[0]/8_bit_dac_tx_buffer_v2_0[0]/8_bit_dac_0/7_bit_dac_0[0]/6_bit_dac_0[0]/5_bit_dac_0[0]/4_bit_dac_0[0]/3_bit_dac_0[0]/2_bit_dac_0[0]/switch2n_3v3_0/VREFH VREFH VSSA sky130_fd_pr__res_generic_nd__hv w=0.42 l=2.1
X22 2x8bit_tx_buffer_0[0]/8_bit_dac_tx_buffer_v2_0[0]/8_bit_dac_0/7_bit_dac_0[0]/6_bit_dac_0[0]/5_bit_dac_0[0]/4_bit_dac_0[0]/3_bit_dac_0[0]/2_bit_dac_0[0]/switch2n_3v3_0/a_n6524_n498# 2x8bit_tx_buffer_0[0]/8_bit_dac_tx_buffer_v2_0[0]/8_bit_dac_0/7_bit_dac_0[0]/6_bit_dac_0[0]/5_bit_dac_0[0]/4_bit_dac_0[0]/3_bit_dac_0[0]/2_bit_dac_0[0]/D0 VSSA VSSA sky130_fd_pr__nfet_g5v0d10v5 ad=0.145 pd=1.58 as=0.145 ps=1.58 w=0.5 l=0.5
X23 2x8bit_tx_buffer_0[0]/8_bit_dac_tx_buffer_v2_0[0]/8_bit_dac_0/7_bit_dac_0[0]/6_bit_dac_0[0]/5_bit_dac_0[0]/4_bit_dac_0[0]/3_bit_dac_0[0]/2_bit_dac_0[0]/switch2n_3v3_0/VOUTL 2x8bit_tx_buffer_0[0]/8_bit_dac_tx_buffer_v2_0[0]/8_bit_dac_0/7_bit_dac_0[0]/6_bit_dac_0[0]/5_bit_dac_0[0]/4_bit_dac_0[0]/3_bit_dac_0[0]/2_bit_dac_0[0]/switch2n_3v3_0/a_n6524_n498# 2x8bit_tx_buffer_0[0]/8_bit_dac_tx_buffer_v2_0[0]/8_bit_dac_0/7_bit_dac_0[0]/6_bit_dac_0[0]/5_bit_dac_0[0]/4_bit_dac_0[0]/3_bit_dac_0[0]/2_bit_dac_0[1]/VREFH VSSA sky130_fd_pr__nfet_g5v0d10v5 ad=0.145 pd=1.58 as=0.145 ps=1.58 w=0.5 l=0.5
X24 2x8bit_tx_buffer_0[0]/8_bit_dac_tx_buffer_v2_0[0]/8_bit_dac_0/7_bit_dac_0[0]/6_bit_dac_0[0]/5_bit_dac_0[0]/4_bit_dac_0[0]/3_bit_dac_0[0]/2_bit_dac_0[0]/switch2n_3v3_0/VOUTH 2x8bit_tx_buffer_0[0]/8_bit_dac_tx_buffer_v2_0[0]/8_bit_dac_0/7_bit_dac_0[0]/6_bit_dac_0[0]/5_bit_dac_0[0]/4_bit_dac_0[0]/3_bit_dac_0[0]/2_bit_dac_0[0]/switch2n_3v3_0/a_n6524_n498# 2x8bit_tx_buffer_0[0]/8_bit_dac_tx_buffer_v2_0[0]/8_bit_dac_0/7_bit_dac_0[0]/6_bit_dac_0[0]/5_bit_dac_0[0]/4_bit_dac_0[0]/3_bit_dac_0[0]/2_bit_dac_0[0]/switch2n_3v3_0/R_H VSSA sky130_fd_pr__nfet_g5v0d10v5 ad=0.145 pd=1.58 as=0.145 ps=1.58 w=0.5 l=0.5
X25 2x8bit_tx_buffer_0[0]/8_bit_dac_tx_buffer_v2_0[0]/8_bit_dac_0/7_bit_dac_0[0]/6_bit_dac_0[0]/5_bit_dac_0[0]/4_bit_dac_0[0]/3_bit_dac_0[0]/2_bit_dac_0[0]/switch2n_3v3_0/R_H 2x8bit_tx_buffer_0[0]/8_bit_dac_tx_buffer_v2_0[0]/8_bit_dac_0/D0_BUF 2x8bit_tx_buffer_0[0]/8_bit_dac_tx_buffer_v2_0[0]/8_bit_dac_0/7_bit_dac_0[0]/6_bit_dac_0[0]/5_bit_dac_0[0]/4_bit_dac_0[0]/3_bit_dac_0[0]/2_bit_dac_0[0]/switch2n_3v3_0/VOUTH VDDA sky130_fd_pr__pfet_g5v0d10v5 ad=0.29 pd=2.58 as=0.29 ps=2.58 w=1 l=0.5
X26 2x8bit_tx_buffer_0[0]/8_bit_dac_tx_buffer_v2_0[0]/8_bit_dac_0/7_bit_dac_0[0]/6_bit_dac_0[0]/5_bit_dac_0[0]/4_bit_dac_0[0]/3_bit_dac_0[0]/2_bit_dac_0[0]/switch2n_3v3_0/R_H 2x8bit_tx_buffer_0[0]/8_bit_dac_tx_buffer_v2_0[0]/8_bit_dac_0/7_bit_dac_0[0]/6_bit_dac_0[0]/5_bit_dac_0[0]/4_bit_dac_0[0]/3_bit_dac_0[0]/2_bit_dac_0[0]/switch2n_3v3_0/R_L VSSA sky130_fd_pr__res_generic_nd__hv w=0.42 l=2.1
X27 2x8bit_tx_buffer_0[0]/8_bit_dac_tx_buffer_v2_0[0]/8_bit_dac_0/7_bit_dac_0[0]/6_bit_dac_0[0]/5_bit_dac_0[0]/4_bit_dac_0[0]/3_bit_dac_0[0]/2_bit_dac_0[0]/switch2n_3v3_0/R_L 2x8bit_tx_buffer_0[0]/8_bit_dac_tx_buffer_v2_0[0]/8_bit_dac_0/7_bit_dac_0[0]/6_bit_dac_0[0]/5_bit_dac_0[0]/4_bit_dac_0[0]/3_bit_dac_0[0]/2_bit_dac_0[1]/VREFH VSSA sky130_fd_pr__res_generic_nd__hv w=0.42 l=2.1
X28 2x8bit_tx_buffer_0[0]/8_bit_dac_tx_buffer_v2_0[0]/8_bit_dac_0/7_bit_dac_0[0]/6_bit_dac_0[0]/5_bit_dac_0[0]/4_bit_dac_0[0]/3_bit_dac_0[0]/2_bit_dac_0[0]/switch2n_3v3_0/R_L 2x8bit_tx_buffer_0[0]/8_bit_dac_tx_buffer_v2_0[0]/8_bit_dac_0/D0_BUF 2x8bit_tx_buffer_0[0]/8_bit_dac_tx_buffer_v2_0[0]/8_bit_dac_0/7_bit_dac_0[0]/6_bit_dac_0[0]/5_bit_dac_0[0]/4_bit_dac_0[0]/3_bit_dac_0[0]/2_bit_dac_0[0]/switch2n_3v3_0/VOUTL VSSA sky130_fd_pr__nfet_g5v0d10v5 ad=0.145 pd=1.58 as=0.145 ps=1.58 w=0.5 l=0.5
X29 2x8bit_tx_buffer_0[0]/8_bit_dac_tx_buffer_v2_0[0]/8_bit_dac_0/D0_BUF 2x8bit_tx_buffer_0[0]/8_bit_dac_tx_buffer_v2_0[0]/8_bit_dac_0/7_bit_dac_0[0]/6_bit_dac_0[0]/5_bit_dac_0[0]/4_bit_dac_0[0]/3_bit_dac_0[0]/2_bit_dac_0[0]/switch2n_3v3_0/a_n6524_n498# VDDA VDDA sky130_fd_pr__pfet_g5v0d10v5 ad=0.29 pd=2.58 as=0.29 ps=2.58 w=1 l=0.5
X30 2x8bit_tx_buffer_0[0]/8_bit_dac_tx_buffer_v2_0[0]/8_bit_dac_0/7_bit_dac_0[0]/6_bit_dac_0[0]/5_bit_dac_0[0]/4_bit_dac_0[0]/3_bit_dac_0[0]/2_bit_dac_0[0]/switch2n_3v3_0/a_n6524_n498# 2x8bit_tx_buffer_0[0]/8_bit_dac_tx_buffer_v2_0[0]/8_bit_dac_0/7_bit_dac_0[0]/6_bit_dac_0[0]/5_bit_dac_0[0]/4_bit_dac_0[0]/3_bit_dac_0[0]/2_bit_dac_0[0]/D0 VDDA VDDA sky130_fd_pr__pfet_g5v0d10v5 ad=0.29 pd=2.58 as=0.29 ps=2.58 w=1 l=0.5
X31 2x8bit_tx_buffer_0[0]/8_bit_dac_tx_buffer_v2_0[0]/8_bit_dac_0/7_bit_dac_0[0]/6_bit_dac_0[0]/5_bit_dac_0[0]/4_bit_dac_0[0]/3_bit_dac_0[0]/2_bit_dac_0[0]/switch2n_3v3_0/VOUTL 2x8bit_tx_buffer_0[0]/8_bit_dac_tx_buffer_v2_0[0]/8_bit_dac_0/7_bit_dac_0[0]/6_bit_dac_0[0]/5_bit_dac_0[0]/4_bit_dac_0[0]/3_bit_dac_0[0]/2_bit_dac_0[0]/switch2n_3v3_0/a_n6524_n498# 2x8bit_tx_buffer_0[0]/8_bit_dac_tx_buffer_v2_0[0]/8_bit_dac_0/7_bit_dac_0[0]/6_bit_dac_0[0]/5_bit_dac_0[0]/4_bit_dac_0[0]/3_bit_dac_0[0]/2_bit_dac_0[0]/switch2n_3v3_0/R_L VDDA sky130_fd_pr__pfet_g5v0d10v5 ad=0.29 pd=2.58 as=0.29 ps=2.58 w=1 l=0.5
X32 2x8bit_tx_buffer_0[0]/8_bit_dac_tx_buffer_v2_0[0]/8_bit_dac_0/7_bit_dac_0[0]/6_bit_dac_0[0]/5_bit_dac_0[0]/4_bit_dac_0[0]/3_bit_dac_0[0]/2_bit_dac_0[1]/VOUT 2x8bit_tx_buffer_0[0]/8_bit_dac_tx_buffer_v2_0[0]/8_bit_dac_0/7_bit_dac_0[0]/6_bit_dac_0[0]/5_bit_dac_0[0]/4_bit_dac_0[0]/3_bit_dac_0[0]/2_bit_dac_0[0]/D1 2x8bit_tx_buffer_0[0]/8_bit_dac_tx_buffer_v2_0[0]/8_bit_dac_0/7_bit_dac_0[0]/6_bit_dac_0[0]/5_bit_dac_0[0]/4_bit_dac_0[0]/3_bit_dac_0[0]/2_bit_dac_0[1]/switch2n_3v3_0/VOUTH VSSA sky130_fd_pr__nfet_g5v0d10v5 ad=0.435 pd=4.74 as=0.435 ps=4.74 w=0.5 l=0.5
X33 2x8bit_tx_buffer_0[0]/8_bit_dac_tx_buffer_v2_0[0]/8_bit_dac_0/7_bit_dac_0[0]/6_bit_dac_0[0]/5_bit_dac_0[0]/4_bit_dac_0[0]/3_bit_dac_0[0]/2_bit_dac_0[1]/switch_n_3v3_v2_0/DX_ 2x8bit_tx_buffer_0[0]/8_bit_dac_tx_buffer_v2_0[0]/8_bit_dac_0/7_bit_dac_0[0]/6_bit_dac_0[0]/5_bit_dac_0[0]/4_bit_dac_0[0]/3_bit_dac_0[0]/D1 VDDA VDDA sky130_fd_pr__pfet_g5v0d10v5 ad=0.29 pd=2.58 as=513 ps=4.48k w=1 l=0.5
X34 2x8bit_tx_buffer_0[0]/8_bit_dac_tx_buffer_v2_0[0]/8_bit_dac_0/7_bit_dac_0[0]/6_bit_dac_0[0]/5_bit_dac_0[0]/4_bit_dac_0[0]/3_bit_dac_0[0]/2_bit_dac_0[0]/D1 2x8bit_tx_buffer_0[0]/8_bit_dac_tx_buffer_v2_0[0]/8_bit_dac_0/7_bit_dac_0[0]/6_bit_dac_0[0]/5_bit_dac_0[0]/4_bit_dac_0[0]/3_bit_dac_0[0]/2_bit_dac_0[1]/switch_n_3v3_v2_0/DX_ VDDA VDDA sky130_fd_pr__pfet_g5v0d10v5 ad=0.29 pd=2.58 as=0 ps=0 w=1 l=0.5
X35 2x8bit_tx_buffer_0[0]/8_bit_dac_tx_buffer_v2_0[0]/8_bit_dac_0/7_bit_dac_0[0]/6_bit_dac_0[0]/5_bit_dac_0[0]/4_bit_dac_0[0]/3_bit_dac_0[0]/2_bit_dac_0[1]/VOUT 2x8bit_tx_buffer_0[0]/8_bit_dac_tx_buffer_v2_0[0]/8_bit_dac_0/7_bit_dac_0[0]/6_bit_dac_0[0]/5_bit_dac_0[0]/4_bit_dac_0[0]/3_bit_dac_0[0]/2_bit_dac_0[0]/D1 2x8bit_tx_buffer_0[0]/8_bit_dac_tx_buffer_v2_0[0]/8_bit_dac_0/7_bit_dac_0[0]/6_bit_dac_0[0]/5_bit_dac_0[0]/4_bit_dac_0[0]/3_bit_dac_0[0]/2_bit_dac_0[1]/switch2n_3v3_0/VOUTL VDDA sky130_fd_pr__pfet_g5v0d10v5 ad=0.87 pd=7.74 as=0.87 ps=7.74 w=1 l=0.5
X36 2x8bit_tx_buffer_0[0]/8_bit_dac_tx_buffer_v2_0[0]/8_bit_dac_0/7_bit_dac_0[0]/6_bit_dac_0[0]/5_bit_dac_0[0]/4_bit_dac_0[0]/3_bit_dac_0[0]/2_bit_dac_0[1]/switch_n_3v3_v2_0/DX_ 2x8bit_tx_buffer_0[0]/8_bit_dac_tx_buffer_v2_0[0]/8_bit_dac_0/7_bit_dac_0[0]/6_bit_dac_0[0]/5_bit_dac_0[0]/4_bit_dac_0[0]/3_bit_dac_0[0]/D1 VSSA VSSA sky130_fd_pr__nfet_g5v0d10v5 ad=0.145 pd=1.58 as=254 ps=2.65k w=0.5 l=0.5
X37 2x8bit_tx_buffer_0[0]/8_bit_dac_tx_buffer_v2_0[0]/8_bit_dac_0/7_bit_dac_0[0]/6_bit_dac_0[0]/5_bit_dac_0[0]/4_bit_dac_0[0]/3_bit_dac_0[0]/2_bit_dac_0[1]/switch2n_3v3_0/VOUTL 2x8bit_tx_buffer_0[0]/8_bit_dac_tx_buffer_v2_0[0]/8_bit_dac_0/7_bit_dac_0[0]/6_bit_dac_0[0]/5_bit_dac_0[0]/4_bit_dac_0[0]/3_bit_dac_0[0]/2_bit_dac_0[1]/switch_n_3v3_v2_0/DX_ 2x8bit_tx_buffer_0[0]/8_bit_dac_tx_buffer_v2_0[0]/8_bit_dac_0/7_bit_dac_0[0]/6_bit_dac_0[0]/5_bit_dac_0[0]/4_bit_dac_0[0]/3_bit_dac_0[0]/2_bit_dac_0[1]/VOUT VSSA sky130_fd_pr__nfet_g5v0d10v5 ad=0.435 pd=4.74 as=0 ps=0 w=0.5 l=0.5
X38 2x8bit_tx_buffer_0[0]/8_bit_dac_tx_buffer_v2_0[0]/8_bit_dac_0/7_bit_dac_0[0]/6_bit_dac_0[0]/5_bit_dac_0[0]/4_bit_dac_0[0]/3_bit_dac_0[0]/2_bit_dac_0[0]/D1 2x8bit_tx_buffer_0[0]/8_bit_dac_tx_buffer_v2_0[0]/8_bit_dac_0/7_bit_dac_0[0]/6_bit_dac_0[0]/5_bit_dac_0[0]/4_bit_dac_0[0]/3_bit_dac_0[0]/2_bit_dac_0[1]/switch_n_3v3_v2_0/DX_ VSSA VSSA sky130_fd_pr__nfet_g5v0d10v5 ad=0.145 pd=1.58 as=0 ps=0 w=0.5 l=0.5
X39 2x8bit_tx_buffer_0[0]/8_bit_dac_tx_buffer_v2_0[0]/8_bit_dac_0/7_bit_dac_0[0]/6_bit_dac_0[0]/5_bit_dac_0[0]/4_bit_dac_0[0]/3_bit_dac_0[0]/2_bit_dac_0[1]/switch2n_3v3_0/VOUTH 2x8bit_tx_buffer_0[0]/8_bit_dac_tx_buffer_v2_0[0]/8_bit_dac_0/7_bit_dac_0[0]/6_bit_dac_0[0]/5_bit_dac_0[0]/4_bit_dac_0[0]/3_bit_dac_0[0]/2_bit_dac_0[1]/switch_n_3v3_v2_0/DX_ 2x8bit_tx_buffer_0[0]/8_bit_dac_tx_buffer_v2_0[0]/8_bit_dac_0/7_bit_dac_0[0]/6_bit_dac_0[0]/5_bit_dac_0[0]/4_bit_dac_0[0]/3_bit_dac_0[0]/2_bit_dac_0[1]/VOUT VDDA sky130_fd_pr__pfet_g5v0d10v5 ad=0.87 pd=7.74 as=0 ps=0 w=1 l=0.5
X40 2x8bit_tx_buffer_0[0]/8_bit_dac_tx_buffer_v2_0[0]/8_bit_dac_0/7_bit_dac_0[0]/6_bit_dac_0[0]/5_bit_dac_0[0]/4_bit_dac_0[0]/3_bit_dac_0[0]/2_bit_dac_0[1]/switch2n_3v3_0/VOUTH 2x8bit_tx_buffer_0[0]/8_bit_dac_tx_buffer_v2_0[0]/8_bit_dac_0/7_bit_dac_0[0]/6_bit_dac_0[0]/5_bit_dac_0[0]/4_bit_dac_0[0]/3_bit_dac_0[0]/2_bit_dac_0[1]/switch2n_3v3_0/a_n6524_n498# 2x8bit_tx_buffer_0[0]/8_bit_dac_tx_buffer_v2_0[0]/8_bit_dac_0/7_bit_dac_0[0]/6_bit_dac_0[0]/5_bit_dac_0[0]/4_bit_dac_0[0]/3_bit_dac_0[0]/2_bit_dac_0[1]/switch2n_3v3_0/VREFH VDDA sky130_fd_pr__pfet_g5v0d10v5 ad=0 pd=0 as=0.29 ps=2.58 w=1 l=0.5
X41 2x8bit_tx_buffer_0[0]/8_bit_dac_tx_buffer_v2_0[0]/8_bit_dac_0/7_bit_dac_0[0]/6_bit_dac_0[0]/5_bit_dac_0[0]/4_bit_dac_0[0]/3_bit_dac_0[0]/2_bit_dac_0[1]/switch2n_3v3_0/VREFH 2x8bit_tx_buffer_0[0]/8_bit_dac_tx_buffer_v2_0[0]/8_bit_dac_0/7_bit_dac_0[0]/6_bit_dac_0[0]/5_bit_dac_0[0]/4_bit_dac_0[0]/3_bit_dac_0[0]/2_bit_dac_0[0]/D0 2x8bit_tx_buffer_0[0]/8_bit_dac_tx_buffer_v2_0[0]/8_bit_dac_0/7_bit_dac_0[0]/6_bit_dac_0[0]/5_bit_dac_0[0]/4_bit_dac_0[0]/3_bit_dac_0[0]/2_bit_dac_0[1]/switch2n_3v3_0/VOUTH VSSA sky130_fd_pr__nfet_g5v0d10v5 ad=0.578 pd=5.32 as=0 ps=0 w=0.5 l=0.5
X42 2x8bit_tx_buffer_0[0]/8_bit_dac_tx_buffer_v2_0[0]/8_bit_dac_0/7_bit_dac_0[0]/6_bit_dac_0[0]/5_bit_dac_0[0]/4_bit_dac_0[0]/3_bit_dac_0[0]/2_bit_dac_0[1]/switch2n_3v3_0/VREFH 2x8bit_tx_buffer_0[0]/8_bit_dac_tx_buffer_v2_0[0]/8_bit_dac_0/7_bit_dac_0[0]/6_bit_dac_0[0]/5_bit_dac_0[0]/4_bit_dac_0[0]/3_bit_dac_0[0]/2_bit_dac_0[1]/switch2n_3v3_0/R_H VSSA sky130_fd_pr__res_generic_nd__hv w=0.42 l=2.1
X43 2x8bit_tx_buffer_0[0]/8_bit_dac_tx_buffer_v2_0[0]/8_bit_dac_0/7_bit_dac_0[0]/6_bit_dac_0[0]/5_bit_dac_0[0]/4_bit_dac_0[0]/3_bit_dac_0[0]/2_bit_dac_0[0]/D0 2x8bit_tx_buffer_0[0]/8_bit_dac_tx_buffer_v2_0[0]/8_bit_dac_0/7_bit_dac_0[0]/6_bit_dac_0[0]/5_bit_dac_0[0]/4_bit_dac_0[0]/3_bit_dac_0[0]/2_bit_dac_0[1]/switch2n_3v3_0/a_n6524_n498# VSSA VSSA sky130_fd_pr__nfet_g5v0d10v5 ad=0.145 pd=1.58 as=0 ps=0 w=0.5 l=0.5
X44 2x8bit_tx_buffer_0[0]/8_bit_dac_tx_buffer_v2_0[0]/8_bit_dac_0/7_bit_dac_0[0]/6_bit_dac_0[0]/5_bit_dac_0[0]/4_bit_dac_0[0]/3_bit_dac_0[1]/VREFH 2x8bit_tx_buffer_0[0]/8_bit_dac_tx_buffer_v2_0[0]/8_bit_dac_0/7_bit_dac_0[0]/6_bit_dac_0[0]/5_bit_dac_0[0]/4_bit_dac_0[0]/3_bit_dac_0[0]/2_bit_dac_0[0]/D0 2x8bit_tx_buffer_0[0]/8_bit_dac_tx_buffer_v2_0[0]/8_bit_dac_0/7_bit_dac_0[0]/6_bit_dac_0[0]/5_bit_dac_0[0]/4_bit_dac_0[0]/3_bit_dac_0[0]/2_bit_dac_0[1]/switch2n_3v3_0/VOUTL VDDA sky130_fd_pr__pfet_g5v0d10v5 ad=0.29 pd=2.58 as=0 ps=0 w=1 l=0.5
X45 2x8bit_tx_buffer_0[0]/8_bit_dac_tx_buffer_v2_0[0]/8_bit_dac_0/7_bit_dac_0[0]/6_bit_dac_0[0]/5_bit_dac_0[0]/4_bit_dac_0[0]/3_bit_dac_0[0]/2_bit_dac_0[1]/switch2n_3v3_0/VREFH 2x8bit_tx_buffer_0[0]/8_bit_dac_tx_buffer_v2_0[0]/8_bit_dac_0/7_bit_dac_0[0]/6_bit_dac_0[0]/5_bit_dac_0[0]/4_bit_dac_0[0]/3_bit_dac_0[0]/2_bit_dac_0[1]/VREFH VSSA sky130_fd_pr__res_generic_nd__hv w=0.42 l=2.1
X46 2x8bit_tx_buffer_0[0]/8_bit_dac_tx_buffer_v2_0[0]/8_bit_dac_0/7_bit_dac_0[0]/6_bit_dac_0[0]/5_bit_dac_0[0]/4_bit_dac_0[0]/3_bit_dac_0[0]/2_bit_dac_0[1]/switch2n_3v3_0/a_n6524_n498# 2x8bit_tx_buffer_0[0]/8_bit_dac_tx_buffer_v2_0[0]/8_bit_dac_0/7_bit_dac_0[0]/6_bit_dac_0[0]/5_bit_dac_0[0]/4_bit_dac_0[0]/3_bit_dac_0[0]/D0 VSSA VSSA sky130_fd_pr__nfet_g5v0d10v5 ad=0.145 pd=1.58 as=0 ps=0 w=0.5 l=0.5
X47 2x8bit_tx_buffer_0[0]/8_bit_dac_tx_buffer_v2_0[0]/8_bit_dac_0/7_bit_dac_0[0]/6_bit_dac_0[0]/5_bit_dac_0[0]/4_bit_dac_0[0]/3_bit_dac_0[0]/2_bit_dac_0[1]/switch2n_3v3_0/VOUTL 2x8bit_tx_buffer_0[0]/8_bit_dac_tx_buffer_v2_0[0]/8_bit_dac_0/7_bit_dac_0[0]/6_bit_dac_0[0]/5_bit_dac_0[0]/4_bit_dac_0[0]/3_bit_dac_0[0]/2_bit_dac_0[1]/switch2n_3v3_0/a_n6524_n498# 2x8bit_tx_buffer_0[0]/8_bit_dac_tx_buffer_v2_0[0]/8_bit_dac_0/7_bit_dac_0[0]/6_bit_dac_0[0]/5_bit_dac_0[0]/4_bit_dac_0[0]/3_bit_dac_0[1]/VREFH VSSA sky130_fd_pr__nfet_g5v0d10v5 ad=0 pd=0 as=0.578 ps=5.32 w=0.5 l=0.5
X48 2x8bit_tx_buffer_0[0]/8_bit_dac_tx_buffer_v2_0[0]/8_bit_dac_0/7_bit_dac_0[0]/6_bit_dac_0[0]/5_bit_dac_0[0]/4_bit_dac_0[0]/3_bit_dac_0[0]/2_bit_dac_0[1]/switch2n_3v3_0/VOUTH 2x8bit_tx_buffer_0[0]/8_bit_dac_tx_buffer_v2_0[0]/8_bit_dac_0/7_bit_dac_0[0]/6_bit_dac_0[0]/5_bit_dac_0[0]/4_bit_dac_0[0]/3_bit_dac_0[0]/2_bit_dac_0[1]/switch2n_3v3_0/a_n6524_n498# 2x8bit_tx_buffer_0[0]/8_bit_dac_tx_buffer_v2_0[0]/8_bit_dac_0/7_bit_dac_0[0]/6_bit_dac_0[0]/5_bit_dac_0[0]/4_bit_dac_0[0]/3_bit_dac_0[0]/2_bit_dac_0[1]/switch2n_3v3_0/R_H VSSA sky130_fd_pr__nfet_g5v0d10v5 ad=0 pd=0 as=0.578 ps=5.32 w=0.5 l=0.5
X49 2x8bit_tx_buffer_0[0]/8_bit_dac_tx_buffer_v2_0[0]/8_bit_dac_0/7_bit_dac_0[0]/6_bit_dac_0[0]/5_bit_dac_0[0]/4_bit_dac_0[0]/3_bit_dac_0[0]/2_bit_dac_0[1]/switch2n_3v3_0/R_H 2x8bit_tx_buffer_0[0]/8_bit_dac_tx_buffer_v2_0[0]/8_bit_dac_0/7_bit_dac_0[0]/6_bit_dac_0[0]/5_bit_dac_0[0]/4_bit_dac_0[0]/3_bit_dac_0[0]/2_bit_dac_0[0]/D0 2x8bit_tx_buffer_0[0]/8_bit_dac_tx_buffer_v2_0[0]/8_bit_dac_0/7_bit_dac_0[0]/6_bit_dac_0[0]/5_bit_dac_0[0]/4_bit_dac_0[0]/3_bit_dac_0[0]/2_bit_dac_0[1]/switch2n_3v3_0/VOUTH VDDA sky130_fd_pr__pfet_g5v0d10v5 ad=0.29 pd=2.58 as=0 ps=0 w=1 l=0.5
X50 2x8bit_tx_buffer_0[0]/8_bit_dac_tx_buffer_v2_0[0]/8_bit_dac_0/7_bit_dac_0[0]/6_bit_dac_0[0]/5_bit_dac_0[0]/4_bit_dac_0[0]/3_bit_dac_0[0]/2_bit_dac_0[1]/switch2n_3v3_0/R_H 2x8bit_tx_buffer_0[0]/8_bit_dac_tx_buffer_v2_0[0]/8_bit_dac_0/7_bit_dac_0[0]/6_bit_dac_0[0]/5_bit_dac_0[0]/4_bit_dac_0[0]/3_bit_dac_0[0]/2_bit_dac_0[1]/switch2n_3v3_0/R_L VSSA sky130_fd_pr__res_generic_nd__hv w=0.42 l=2.1
X51 2x8bit_tx_buffer_0[0]/8_bit_dac_tx_buffer_v2_0[0]/8_bit_dac_0/7_bit_dac_0[0]/6_bit_dac_0[0]/5_bit_dac_0[0]/4_bit_dac_0[0]/3_bit_dac_0[0]/2_bit_dac_0[1]/switch2n_3v3_0/R_L 2x8bit_tx_buffer_0[0]/8_bit_dac_tx_buffer_v2_0[0]/8_bit_dac_0/7_bit_dac_0[0]/6_bit_dac_0[0]/5_bit_dac_0[0]/4_bit_dac_0[0]/3_bit_dac_0[1]/VREFH VSSA sky130_fd_pr__res_generic_nd__hv w=0.42 l=2.1
X52 2x8bit_tx_buffer_0[0]/8_bit_dac_tx_buffer_v2_0[0]/8_bit_dac_0/7_bit_dac_0[0]/6_bit_dac_0[0]/5_bit_dac_0[0]/4_bit_dac_0[0]/3_bit_dac_0[0]/2_bit_dac_0[1]/switch2n_3v3_0/R_L 2x8bit_tx_buffer_0[0]/8_bit_dac_tx_buffer_v2_0[0]/8_bit_dac_0/7_bit_dac_0[0]/6_bit_dac_0[0]/5_bit_dac_0[0]/4_bit_dac_0[0]/3_bit_dac_0[0]/2_bit_dac_0[0]/D0 2x8bit_tx_buffer_0[0]/8_bit_dac_tx_buffer_v2_0[0]/8_bit_dac_0/7_bit_dac_0[0]/6_bit_dac_0[0]/5_bit_dac_0[0]/4_bit_dac_0[0]/3_bit_dac_0[0]/2_bit_dac_0[1]/switch2n_3v3_0/VOUTL VSSA sky130_fd_pr__nfet_g5v0d10v5 ad=0.578 pd=5.32 as=0 ps=0 w=0.5 l=0.5
X53 2x8bit_tx_buffer_0[0]/8_bit_dac_tx_buffer_v2_0[0]/8_bit_dac_0/7_bit_dac_0[0]/6_bit_dac_0[0]/5_bit_dac_0[0]/4_bit_dac_0[0]/3_bit_dac_0[0]/2_bit_dac_0[0]/D0 2x8bit_tx_buffer_0[0]/8_bit_dac_tx_buffer_v2_0[0]/8_bit_dac_0/7_bit_dac_0[0]/6_bit_dac_0[0]/5_bit_dac_0[0]/4_bit_dac_0[0]/3_bit_dac_0[0]/2_bit_dac_0[1]/switch2n_3v3_0/a_n6524_n498# VDDA VDDA sky130_fd_pr__pfet_g5v0d10v5 ad=0.29 pd=2.58 as=0 ps=0 w=1 l=0.5
X54 2x8bit_tx_buffer_0[0]/8_bit_dac_tx_buffer_v2_0[0]/8_bit_dac_0/7_bit_dac_0[0]/6_bit_dac_0[0]/5_bit_dac_0[0]/4_bit_dac_0[0]/3_bit_dac_0[0]/2_bit_dac_0[1]/switch2n_3v3_0/a_n6524_n498# 2x8bit_tx_buffer_0[0]/8_bit_dac_tx_buffer_v2_0[0]/8_bit_dac_0/7_bit_dac_0[0]/6_bit_dac_0[0]/5_bit_dac_0[0]/4_bit_dac_0[0]/3_bit_dac_0[0]/D0 VDDA VDDA sky130_fd_pr__pfet_g5v0d10v5 ad=0.29 pd=2.58 as=0 ps=0 w=1 l=0.5
X55 2x8bit_tx_buffer_0[0]/8_bit_dac_tx_buffer_v2_0[0]/8_bit_dac_0/7_bit_dac_0[0]/6_bit_dac_0[0]/5_bit_dac_0[0]/4_bit_dac_0[0]/3_bit_dac_0[0]/2_bit_dac_0[1]/switch2n_3v3_0/VOUTL 2x8bit_tx_buffer_0[0]/8_bit_dac_tx_buffer_v2_0[0]/8_bit_dac_0/7_bit_dac_0[0]/6_bit_dac_0[0]/5_bit_dac_0[0]/4_bit_dac_0[0]/3_bit_dac_0[0]/2_bit_dac_0[1]/switch2n_3v3_0/a_n6524_n498# 2x8bit_tx_buffer_0[0]/8_bit_dac_tx_buffer_v2_0[0]/8_bit_dac_0/7_bit_dac_0[0]/6_bit_dac_0[0]/5_bit_dac_0[0]/4_bit_dac_0[0]/3_bit_dac_0[0]/2_bit_dac_0[1]/switch2n_3v3_0/R_L VDDA sky130_fd_pr__pfet_g5v0d10v5 ad=0 pd=0 as=0.29 ps=2.58 w=1 l=0.5
X56 2x8bit_tx_buffer_0[0]/8_bit_dac_tx_buffer_v2_0[0]/8_bit_dac_0/7_bit_dac_0[0]/6_bit_dac_0[0]/5_bit_dac_0[0]/4_bit_dac_0[0]/3_bit_dac_0[0]/VOUT 2x8bit_tx_buffer_0[0]/8_bit_dac_tx_buffer_v2_0[0]/8_bit_dac_0/D2_BUF 2x8bit_tx_buffer_0[0]/8_bit_dac_tx_buffer_v2_0[0]/8_bit_dac_0/7_bit_dac_0[0]/6_bit_dac_0[0]/5_bit_dac_0[0]/4_bit_dac_0[0]/3_bit_dac_0[0]/2_bit_dac_0[0]/VOUT VSSA sky130_fd_pr__nfet_g5v0d10v5 ad=0.435 pd=4.74 as=0.435 ps=4.74 w=0.5 l=0.5
X57 2x8bit_tx_buffer_0[0]/8_bit_dac_tx_buffer_v2_0[0]/8_bit_dac_0/7_bit_dac_0[0]/6_bit_dac_0[0]/5_bit_dac_0[0]/4_bit_dac_0[0]/3_bit_dac_0[0]/switch_n_3v3_1/DX_ 2x8bit_tx_buffer_0[0]/8_bit_dac_tx_buffer_v2_0[0]/8_bit_dac_0/7_bit_dac_0[0]/6_bit_dac_0[0]/5_bit_dac_0[0]/4_bit_dac_0[0]/switch_n_3v3_0/D2 VDDA VDDA sky130_fd_pr__pfet_g5v0d10v5 ad=0.29 pd=2.58 as=0 ps=0 w=1 l=0.5
X58 2x8bit_tx_buffer_0[0]/8_bit_dac_tx_buffer_v2_0[0]/8_bit_dac_0/D2_BUF 2x8bit_tx_buffer_0[0]/8_bit_dac_tx_buffer_v2_0[0]/8_bit_dac_0/7_bit_dac_0[0]/6_bit_dac_0[0]/5_bit_dac_0[0]/4_bit_dac_0[0]/3_bit_dac_0[0]/switch_n_3v3_1/DX_ VDDA VDDA sky130_fd_pr__pfet_g5v0d10v5 ad=0.29 pd=2.58 as=0 ps=0 w=1 l=0.5
X59 2x8bit_tx_buffer_0[0]/8_bit_dac_tx_buffer_v2_0[0]/8_bit_dac_0/7_bit_dac_0[0]/6_bit_dac_0[0]/5_bit_dac_0[0]/4_bit_dac_0[0]/3_bit_dac_0[0]/VOUT 2x8bit_tx_buffer_0[0]/8_bit_dac_tx_buffer_v2_0[0]/8_bit_dac_0/D2_BUF 2x8bit_tx_buffer_0[0]/8_bit_dac_tx_buffer_v2_0[0]/8_bit_dac_0/7_bit_dac_0[0]/6_bit_dac_0[0]/5_bit_dac_0[0]/4_bit_dac_0[0]/3_bit_dac_0[0]/2_bit_dac_0[1]/VOUT VDDA sky130_fd_pr__pfet_g5v0d10v5 ad=0.87 pd=7.74 as=0 ps=0 w=1 l=0.5
X60 2x8bit_tx_buffer_0[0]/8_bit_dac_tx_buffer_v2_0[0]/8_bit_dac_0/7_bit_dac_0[0]/6_bit_dac_0[0]/5_bit_dac_0[0]/4_bit_dac_0[0]/3_bit_dac_0[0]/switch_n_3v3_1/DX_ 2x8bit_tx_buffer_0[0]/8_bit_dac_tx_buffer_v2_0[0]/8_bit_dac_0/7_bit_dac_0[0]/6_bit_dac_0[0]/5_bit_dac_0[0]/4_bit_dac_0[0]/switch_n_3v3_0/D2 VSSA VSSA sky130_fd_pr__nfet_g5v0d10v5 ad=0.145 pd=1.58 as=0 ps=0 w=0.5 l=0.5
X61 2x8bit_tx_buffer_0[0]/8_bit_dac_tx_buffer_v2_0[0]/8_bit_dac_0/7_bit_dac_0[0]/6_bit_dac_0[0]/5_bit_dac_0[0]/4_bit_dac_0[0]/3_bit_dac_0[0]/2_bit_dac_0[1]/VOUT 2x8bit_tx_buffer_0[0]/8_bit_dac_tx_buffer_v2_0[0]/8_bit_dac_0/7_bit_dac_0[0]/6_bit_dac_0[0]/5_bit_dac_0[0]/4_bit_dac_0[0]/3_bit_dac_0[0]/switch_n_3v3_1/DX_ 2x8bit_tx_buffer_0[0]/8_bit_dac_tx_buffer_v2_0[0]/8_bit_dac_0/7_bit_dac_0[0]/6_bit_dac_0[0]/5_bit_dac_0[0]/4_bit_dac_0[0]/3_bit_dac_0[0]/VOUT VSSA sky130_fd_pr__nfet_g5v0d10v5 ad=0 pd=0 as=0 ps=0 w=0.5 l=0.5
X62 2x8bit_tx_buffer_0[0]/8_bit_dac_tx_buffer_v2_0[0]/8_bit_dac_0/D2_BUF 2x8bit_tx_buffer_0[0]/8_bit_dac_tx_buffer_v2_0[0]/8_bit_dac_0/7_bit_dac_0[0]/6_bit_dac_0[0]/5_bit_dac_0[0]/4_bit_dac_0[0]/3_bit_dac_0[0]/switch_n_3v3_1/DX_ VSSA VSSA sky130_fd_pr__nfet_g5v0d10v5 ad=0.145 pd=1.58 as=0 ps=0 w=0.5 l=0.5
X63 2x8bit_tx_buffer_0[0]/8_bit_dac_tx_buffer_v2_0[0]/8_bit_dac_0/7_bit_dac_0[0]/6_bit_dac_0[0]/5_bit_dac_0[0]/4_bit_dac_0[0]/3_bit_dac_0[0]/2_bit_dac_0[0]/VOUT 2x8bit_tx_buffer_0[0]/8_bit_dac_tx_buffer_v2_0[0]/8_bit_dac_0/7_bit_dac_0[0]/6_bit_dac_0[0]/5_bit_dac_0[0]/4_bit_dac_0[0]/3_bit_dac_0[0]/switch_n_3v3_1/DX_ 2x8bit_tx_buffer_0[0]/8_bit_dac_tx_buffer_v2_0[0]/8_bit_dac_0/7_bit_dac_0[0]/6_bit_dac_0[0]/5_bit_dac_0[0]/4_bit_dac_0[0]/3_bit_dac_0[0]/VOUT VDDA sky130_fd_pr__pfet_g5v0d10v5 ad=0.87 pd=7.74 as=0 ps=0 w=1 l=0.5
X64 2x8bit_tx_buffer_0[0]/8_bit_dac_tx_buffer_v2_0[0]/8_bit_dac_0/7_bit_dac_0[0]/6_bit_dac_0[0]/5_bit_dac_0[0]/4_bit_dac_0[0]/3_bit_dac_0[1]/2_bit_dac_0[0]/VOUT 2x8bit_tx_buffer_0[0]/8_bit_dac_tx_buffer_v2_0[0]/8_bit_dac_0/7_bit_dac_0[0]/6_bit_dac_0[0]/5_bit_dac_0[0]/4_bit_dac_0[0]/3_bit_dac_0[0]/D1 2x8bit_tx_buffer_0[0]/8_bit_dac_tx_buffer_v2_0[0]/8_bit_dac_0/7_bit_dac_0[0]/6_bit_dac_0[0]/5_bit_dac_0[0]/4_bit_dac_0[0]/3_bit_dac_0[1]/2_bit_dac_0[0]/switch2n_3v3_0/VOUTH VSSA sky130_fd_pr__nfet_g5v0d10v5 ad=0.435 pd=4.74 as=0.435 ps=4.74 w=0.5 l=0.5
X65 2x8bit_tx_buffer_0[0]/8_bit_dac_tx_buffer_v2_0[0]/8_bit_dac_0/7_bit_dac_0[0]/6_bit_dac_0[0]/5_bit_dac_0[0]/4_bit_dac_0[0]/3_bit_dac_0[1]/2_bit_dac_0[0]/switch_n_3v3_v2_0/DX_ 2x8bit_tx_buffer_0[0]/8_bit_dac_tx_buffer_v2_0[0]/8_bit_dac_0/7_bit_dac_0[0]/6_bit_dac_0[0]/5_bit_dac_0[0]/4_bit_dac_0[0]/3_bit_dac_0[1]/2_bit_dac_0[0]/D1 VDDA VDDA sky130_fd_pr__pfet_g5v0d10v5 ad=0.29 pd=2.58 as=0 ps=0 w=1 l=0.5