* SPICE3 file created from 6_bit_dac.ext - technology: sky130A

.subckt x6_bit_dac D0 VREFL D1 D2 D3 D4 D5 D0_BUF VREFH D1_BUF D2_BUF D3_BUF D4_BUF
+ D5_BUF VOUT VCC VSS
X0 5_bit_dac_0[0].4_bit_dac_0[0].3_bit_dac_0[0].2_bit_dac_0[0].switch2n_3v3_0.R_H D0_BUF.t2 5_bit_dac_0[0].4_bit_dac_0[0].3_bit_dac_0[0].2_bit_dac_0[0].switch2n_3v3_0.VOUTH VCC.t129 sky130_fd_pr__pfet_g5v0d10v5 ad=0.29 pd=2.58 as=0.29 ps=2.58 w=1 l=0.5
X1 5_bit_dac_0[0].4_bit_dac_0[0].3_bit_dac_0[1].2_bit_dac_0[0].switch2n_3v3_0.R_L 5_bit_dac_0[0].4_bit_dac_0[0].3_bit_dac_0[1].2_bit_dac_0[1].VREFH VSS.t29 sky130_fd_pr__res_generic_nd__hv w=0.42 l=2.1
X2 5_bit_dac_0[1].4_bit_dac_0[0].VOUT 5_bit_dac_0[1].switch_n_3v3_0.DX_ 5_bit_dac_0[1].VOUT VCC.t210 sky130_fd_pr__pfet_g5v0d10v5 ad=0.29 pd=2.58 as=0.29 ps=2.58 w=1 l=0.5
X3 5_bit_dac_0[0].4_bit_dac_0[1].3_bit_dac_0[0].D0 a_1556_7774# VSS.t231 VSS.t230 sky130_fd_pr__nfet_g5v0d10v5 ad=0.145 pd=1.58 as=0.145 ps=1.58 w=0.5 l=0.5
X4 5_bit_dac_0[1].4_bit_dac_0[0].3_bit_dac_0[0].2_bit_dac_0[1].switch2n_3v3_0.VREFH 5_bit_dac_0[1].4_bit_dac_0[0].3_bit_dac_0[0].2_bit_dac_0[1].switch2n_3v3_0.R_H VSS.t0 sky130_fd_pr__res_generic_nd__hv w=0.42 l=2.1
X5 5_bit_dac_0[0].4_bit_dac_0[0].3_bit_dac_0[1].2_bit_dac_0[0].switch2n_3v3_0.R_L 5_bit_dac_0[0].4_bit_dac_0[0].3_bit_dac_0[0].D0 5_bit_dac_0[0].4_bit_dac_0[0].3_bit_dac_0[1].2_bit_dac_0[0].switch2n_3v3_0.VOUTL VSS.t50 sky130_fd_pr__nfet_g5v0d10v5 ad=0.145 pd=1.58 as=0.145 ps=1.58 w=0.5 l=0.5
X6 5_bit_dac_0[0].4_bit_dac_0[0].D0 a_1556_5318# VCC.t170 VCC.t169 sky130_fd_pr__pfet_g5v0d10v5 ad=0.29 pd=2.58 as=0.29 ps=2.58 w=1 l=0.5
X7 5_bit_dac_0[0].4_bit_dac_0[0].3_bit_dac_0[1].2_bit_dac_0[0].switch2n_3v3_0.VOUTL a_1556_2862# 5_bit_dac_0[0].4_bit_dac_0[0].3_bit_dac_0[1].2_bit_dac_0[0].switch2n_3v3_0.R_L VCC.t72 sky130_fd_pr__pfet_g5v0d10v5 ad=0.29 pd=2.58 as=0.29 ps=2.58 w=1 l=0.5
X8 5_bit_dac_0[1].4_bit_dac_0[1].3_bit_dac_0[1].2_bit_dac_0[0].switch2n_3v3_0.VREFH 5_bit_dac_0[1].4_bit_dac_0[1].3_bit_dac_0[1].2_bit_dac_0[0].switch2n_3v3_0.R_H VSS.t0 sky130_fd_pr__res_generic_nd__hv w=0.42 l=2.1
X9 5_bit_dac_0[0].4_bit_dac_0[1].3_bit_dac_0[0].2_bit_dac_0[0].switch2n_3v3_0.R_L 5_bit_dac_0[0].4_bit_dac_0[0].D0 5_bit_dac_0[0].4_bit_dac_0[1].3_bit_dac_0[0].2_bit_dac_0[0].switch2n_3v3_0.VOUTL VSS.t94 sky130_fd_pr__nfet_g5v0d10v5 ad=0.145 pd=1.58 as=0.145 ps=1.58 w=0.5 l=0.5
X10 5_bit_dac_0[0].4_bit_dac_0[1].3_bit_dac_0[0].2_bit_dac_0[1].switch2n_3v3_0.VOUTH a_1556_6546# 5_bit_dac_0[0].4_bit_dac_0[1].3_bit_dac_0[0].2_bit_dac_0[1].switch2n_3v3_0.R_H VSS.t253 sky130_fd_pr__nfet_g5v0d10v5 ad=0.145 pd=1.58 as=0.145 ps=1.58 w=0.5 l=0.5
X11 5_bit_dac_0[0].4_bit_dac_0[0].3_bit_dac_0[0].2_bit_dac_0[1].switch2n_3v3_0.VOUTH a_1556_1634# 5_bit_dac_0[0].4_bit_dac_0[0].3_bit_dac_0[0].2_bit_dac_0[1].switch2n_3v3_0.VREFH VCC.t220 sky130_fd_pr__pfet_g5v0d10v5 ad=0.29 pd=2.58 as=0.29 ps=2.58 w=1 l=0.5
X12 5_bit_dac_0[0].4_bit_dac_0[0].3_bit_dac_0[1].2_bit_dac_0[1].switch2n_3v3_0.VOUTH a_1556_4090# 5_bit_dac_0[0].4_bit_dac_0[0].3_bit_dac_0[1].2_bit_dac_0[1].switch2n_3v3_0.VREFH VCC.t110 sky130_fd_pr__pfet_g5v0d10v5 ad=0.29 pd=2.58 as=0.29 ps=2.58 w=1 l=0.5
X13 5_bit_dac_0[0].4_bit_dac_0[0].3_bit_dac_0[0].2_bit_dac_0[1].switch2n_3v3_0.VOUTL 5_bit_dac_0[0].4_bit_dac_0[0].3_bit_dac_0[0].2_bit_dac_0[1].switch_n_3v3_v2_0.DX_ 5_bit_dac_0[0].4_bit_dac_0[0].3_bit_dac_0[0].2_bit_dac_0[1].VOUT VSS.t223 sky130_fd_pr__nfet_g5v0d10v5 ad=0.145 pd=1.58 as=0.145 ps=1.58 w=0.5 l=0.5
X14 5_bit_dac_0[0].4_bit_dac_0[1].3_bit_dac_0[0].2_bit_dac_0[1].switch2n_3v3_0.R_L 5_bit_dac_0[0].4_bit_dac_0[1].3_bit_dac_0[1].VREFH VSS.t29 sky130_fd_pr__res_generic_nd__hv w=0.42 l=2.1
X15 5_bit_dac_0[0].4_bit_dac_0[0].3_bit_dac_0[0].2_bit_dac_0[1].switch_n_3v3_v2_0.DX_ 5_bit_dac_0[0].4_bit_dac_0[0].3_bit_dac_0[0].D1 VSS.t126 VSS.t125 sky130_fd_pr__nfet_g5v0d10v5 ad=0.145 pd=1.58 as=0.145 ps=1.58 w=0.5 l=0.5
X16 5_bit_dac_0[0].4_bit_dac_0[1].3_bit_dac_0[1].2_bit_dac_0[1].switch2n_3v3_0.R_L 5_bit_dac_0[1].VREFH VSS.t29 sky130_fd_pr__res_generic_nd__hv w=0.42 l=2.1
X17 5_bit_dac_0[0].4_bit_dac_0[1].3_bit_dac_0[0].2_bit_dac_0[1].switch_n_3v3_v2_0.DX_ 5_bit_dac_0[0].4_bit_dac_0[1].3_bit_dac_0[0].D1 VCC.t243 VCC.t242 sky130_fd_pr__pfet_g5v0d10v5 ad=0.29 pd=2.58 as=0.29 ps=2.58 w=1 l=0.5
X18 5_bit_dac_0[1].4_bit_dac_0[0].3_bit_dac_0[0].2_bit_dac_0[1].switch2n_3v3_0.R_H 5_bit_dac_0[1].4_bit_dac_0[0].3_bit_dac_0[0].2_bit_dac_0[0].D0 5_bit_dac_0[1].4_bit_dac_0[0].3_bit_dac_0[0].2_bit_dac_0[1].switch2n_3v3_0.VOUTH VCC.t101 sky130_fd_pr__pfet_g5v0d10v5 ad=0.29 pd=2.58 as=0.29 ps=2.58 w=1 l=0.5
X19 5_bit_dac_0[0].4_bit_dac_0[1].3_bit_dac_0[0].2_bit_dac_0[0].switch2n_3v3_0.R_H 5_bit_dac_0[0].4_bit_dac_0[1].3_bit_dac_0[0].2_bit_dac_0[0].switch2n_3v3_0.R_L VSS.t1 sky130_fd_pr__res_generic_nd__hv w=0.42 l=2.1
X20 5_bit_dac_0[1].4_bit_dac_0[1].3_bit_dac_0[0].2_bit_dac_0[0].switch2n_3v3_0.VREFH 5_bit_dac_0[1].4_bit_dac_0[1].3_bit_dac_0[0].2_bit_dac_0[0].switch2n_3v3_0.R_H VSS.t0 sky130_fd_pr__res_generic_nd__hv w=0.42 l=2.1
X21 5_bit_dac_0[0].4_bit_dac_0[1].3_bit_dac_0[0].2_bit_dac_0[1].VOUT 5_bit_dac_0[0].4_bit_dac_0[1].3_bit_dac_0[0].2_bit_dac_0[0].D1 5_bit_dac_0[0].4_bit_dac_0[1].3_bit_dac_0[0].2_bit_dac_0[1].switch2n_3v3_0.VOUTH VSS.t174 sky130_fd_pr__nfet_g5v0d10v5 ad=0.145 pd=1.58 as=0.145 ps=1.58 w=0.5 l=0.5
X22 5_bit_dac_0[0].4_bit_dac_0[1].3_bit_dac_0[1].2_bit_dac_0[0].D0 a_1556_9002# VCC.t114 VCC.t113 sky130_fd_pr__pfet_g5v0d10v5 ad=0.29 pd=2.58 as=0.29 ps=2.58 w=1 l=0.5
X23 5_bit_dac_0[1].4_bit_dac_0[1].3_bit_dac_0[1].2_bit_dac_0[0].switch2n_3v3_0.R_H 5_bit_dac_0[1].4_bit_dac_0[1].3_bit_dac_0[0].D0 5_bit_dac_0[1].4_bit_dac_0[1].3_bit_dac_0[1].2_bit_dac_0[0].switch2n_3v3_0.VOUTH VCC.t136 sky130_fd_pr__pfet_g5v0d10v5 ad=0.29 pd=2.58 as=0.29 ps=2.58 w=1 l=0.5
X24 5_bit_dac_0[1].4_bit_dac_0[0].3_bit_dac_0[0].2_bit_dac_0[0].VOUT 5_bit_dac_0[0].D1 5_bit_dac_0[1].4_bit_dac_0[0].3_bit_dac_0[0].2_bit_dac_0[0].switch2n_3v3_0.VOUTH VSS.t129 sky130_fd_pr__nfet_g5v0d10v5 ad=0.145 pd=1.58 as=0.145 ps=1.58 w=0.5 l=0.5
X25 5_bit_dac_0[0].4_bit_dac_0[1].3_bit_dac_0[0].2_bit_dac_0[1].VOUT 5_bit_dac_0[0].4_bit_dac_0[1].3_bit_dac_0[0].switch_n_3v3_1.DX_ 5_bit_dac_0[0].4_bit_dac_0[1].3_bit_dac_0[0].VOUT VSS.t63 sky130_fd_pr__nfet_g5v0d10v5 ad=0.145 pd=1.58 as=0.145 ps=1.58 w=0.5 l=0.5
X26 a_1556_11458# 5_bit_dac_0[1].4_bit_dac_0[0].3_bit_dac_0[0].D0 VCC.t275 VCC.t274 sky130_fd_pr__pfet_g5v0d10v5 ad=0.29 pd=2.58 as=0.29 ps=2.58 w=1 l=0.5
X27 5_bit_dac_0[0].4_bit_dac_0[0].3_bit_dac_0[0].2_bit_dac_0[0].switch2n_3v3_0.VOUTL 5_bit_dac_0[0].4_bit_dac_0[0].3_bit_dac_0[0].2_bit_dac_0[0].switch_n_3v3_v2_0.DX_ 5_bit_dac_0[0].4_bit_dac_0[0].3_bit_dac_0[0].2_bit_dac_0[0].VOUT VSS.t162 sky130_fd_pr__nfet_g5v0d10v5 ad=0.145 pd=1.58 as=0.145 ps=1.58 w=0.5 l=0.5
X28 5_bit_dac_0[0].4_bit_dac_0[1].3_bit_dac_0[0].switch_n_3v3_1.DX_ 5_bit_dac_0[0].4_bit_dac_0[1].switch_n_3v3_0.D2 VSS.t266 VSS.t265 sky130_fd_pr__nfet_g5v0d10v5 ad=0.145 pd=1.58 as=0.145 ps=1.58 w=0.5 l=0.5
X29 5_bit_dac_0[0].4_bit_dac_0[1].3_bit_dac_0[1].2_bit_dac_0[1].switch2n_3v3_0.R_L 5_bit_dac_0[0].4_bit_dac_0[1].3_bit_dac_0[1].2_bit_dac_0[0].D0 5_bit_dac_0[0].4_bit_dac_0[1].3_bit_dac_0[1].2_bit_dac_0[1].switch2n_3v3_0.VOUTL VSS.t123 sky130_fd_pr__nfet_g5v0d10v5 ad=0.145 pd=1.58 as=0.145 ps=1.58 w=0.5 l=0.5
X30 5_bit_dac_0[0].4_bit_dac_0[0].3_bit_dac_0[0].switch_n_3v3_1.DX_ 5_bit_dac_0[0].4_bit_dac_0[0].switch_n_3v3_0.D2 VCC.t207 VCC.t206 sky130_fd_pr__pfet_g5v0d10v5 ad=0.29 pd=2.58 as=0.29 ps=2.58 w=1 l=0.5
X31 5_bit_dac_0[0].4_bit_dac_0[0].3_bit_dac_0[1].2_bit_dac_0[1].switch2n_3v3_0.VOUTH a_1556_4090# 5_bit_dac_0[0].4_bit_dac_0[0].3_bit_dac_0[1].2_bit_dac_0[1].switch2n_3v3_0.R_H VSS.t115 sky130_fd_pr__nfet_g5v0d10v5 ad=0.145 pd=1.58 as=0.145 ps=1.58 w=0.5 l=0.5
X32 a_1556_17598# 5_bit_dac_0[1].4_bit_dac_0[1].3_bit_dac_0[1].2_bit_dac_0[0].D0 VCC.t285 VCC.t284 sky130_fd_pr__pfet_g5v0d10v5 ad=0.29 pd=2.58 as=0.29 ps=2.58 w=1 l=0.5
X33 5_bit_dac_0[0].4_bit_dac_0[0].3_bit_dac_0[1].switch_n_3v3_1.DX_ 5_bit_dac_0[0].switch_n_3v3_0.D2 VCC.t83 VCC.t82 sky130_fd_pr__pfet_g5v0d10v5 ad=0.29 pd=2.58 as=0.29 ps=2.58 w=1 l=0.5
X34 5_bit_dac_0[0].4_bit_dac_0[0].3_bit_dac_0[0].VOUT D2_BUF.t2 5_bit_dac_0[0].4_bit_dac_0[0].3_bit_dac_0[0].2_bit_dac_0[0].VOUT VSS.t241 sky130_fd_pr__nfet_g5v0d10v5 ad=0.145 pd=1.58 as=0.145 ps=1.58 w=0.5 l=0.5
X35 5_bit_dac_0[0].4_bit_dac_0[1].3_bit_dac_0[0].2_bit_dac_0[0].switch2n_3v3_0.VOUTL 5_bit_dac_0[0].4_bit_dac_0[1].3_bit_dac_0[0].2_bit_dac_0[0].switch_n_3v3_v2_0.DX_ 5_bit_dac_0[0].4_bit_dac_0[1].3_bit_dac_0[0].2_bit_dac_0[0].VOUT VSS.t23 sky130_fd_pr__nfet_g5v0d10v5 ad=0.145 pd=1.58 as=0.145 ps=1.58 w=0.5 l=0.5
X36 5_bit_dac_0[0].4_bit_dac_0[1].3_bit_dac_0[1].2_bit_dac_0[0].switch2n_3v3_0.VOUTH a_1556_7774# 5_bit_dac_0[0].4_bit_dac_0[1].3_bit_dac_0[1].2_bit_dac_0[0].switch2n_3v3_0.VREFH VCC.t225 sky130_fd_pr__pfet_g5v0d10v5 ad=0.29 pd=2.58 as=0.29 ps=2.58 w=1 l=0.5
X37 5_bit_dac_0[1].VOUT switch_n_3v3_0.D4.t2 5_bit_dac_0[1].4_bit_dac_0[0].VOUT VSS.t135 sky130_fd_pr__nfet_g5v0d10v5 ad=0.145 pd=1.58 as=0.145 ps=1.58 w=0.5 l=0.5
X38 5_bit_dac_0[1].4_bit_dac_0[1].3_bit_dac_0[0].D1 5_bit_dac_0[1].4_bit_dac_0[1].3_bit_dac_0[1].2_bit_dac_0[0].switch_n_3v3_v2_0.DX_ VCC.t106 VCC.t105 sky130_fd_pr__pfet_g5v0d10v5 ad=0.29 pd=2.58 as=0.29 ps=2.58 w=1 l=0.5
X39 5_bit_dac_0[1].4_bit_dac_0[0].3_bit_dac_0[0].2_bit_dac_0[1].VOUT 5_bit_dac_0[1].4_bit_dac_0[0].3_bit_dac_0[0].2_bit_dac_0[0].D1 5_bit_dac_0[1].4_bit_dac_0[0].3_bit_dac_0[0].2_bit_dac_0[1].switch2n_3v3_0.VOUTL VCC.t93 sky130_fd_pr__pfet_g5v0d10v5 ad=0.29 pd=2.58 as=0.29 ps=2.58 w=1 l=0.5
X40 5_bit_dac_0[1].4_bit_dac_0[0].3_bit_dac_0[0].2_bit_dac_0[0].switch2n_3v3_0.VREFH 5_bit_dac_0[0].D0 5_bit_dac_0[1].4_bit_dac_0[0].3_bit_dac_0[0].2_bit_dac_0[0].switch2n_3v3_0.VOUTH VSS.t275 sky130_fd_pr__nfet_g5v0d10v5 ad=0.145 pd=1.58 as=0.145 ps=1.58 w=0.5 l=0.5
X41 5_bit_dac_0[0].4_bit_dac_0[0].3_bit_dac_0[1].2_bit_dac_0[0].switch_n_3v3_v2_0.DX_ 5_bit_dac_0[0].4_bit_dac_0[0].3_bit_dac_0[1].2_bit_dac_0[0].D1 VCC.t64 VCC.t63 sky130_fd_pr__pfet_g5v0d10v5 ad=0.29 pd=2.58 as=0.29 ps=2.58 w=1 l=0.5
X42 5_bit_dac_0[1].4_bit_dac_0[0].3_bit_dac_0[0].2_bit_dac_0[1].switch2n_3v3_0.VOUTH a_1556_11458# 5_bit_dac_0[1].4_bit_dac_0[0].3_bit_dac_0[0].2_bit_dac_0[1].switch2n_3v3_0.R_H VSS.t279 sky130_fd_pr__nfet_g5v0d10v5 ad=0.145 pd=1.58 as=0.145 ps=1.58 w=0.5 l=0.5
X43 5_bit_dac_0[1].4_bit_dac_0[1].3_bit_dac_0[0].2_bit_dac_0[0].switch2n_3v3_0.R_H 5_bit_dac_0[1].4_bit_dac_0[0].D0 5_bit_dac_0[1].4_bit_dac_0[1].3_bit_dac_0[0].2_bit_dac_0[0].switch2n_3v3_0.VOUTH VCC.t47 sky130_fd_pr__pfet_g5v0d10v5 ad=0.29 pd=2.58 as=0.29 ps=2.58 w=1 l=0.5
X44 switch_n_3v3_0.D2 5_bit_dac_0[1].4_bit_dac_0[0].3_bit_dac_0[0].switch_n_3v3_1.DX_ VSS.t296 VSS.t295 sky130_fd_pr__nfet_g5v0d10v5 ad=0.145 pd=1.58 as=0.145 ps=1.58 w=0.5 l=0.5
X45 a_1556_10230# 5_bit_dac_0[1].4_bit_dac_0[0].3_bit_dac_0[0].2_bit_dac_0[0].D0 VSS.t107 VSS.t106 sky130_fd_pr__nfet_g5v0d10v5 ad=0.145 pd=1.58 as=0.145 ps=1.58 w=0.5 l=0.5
X46 5_bit_dac_0[1].4_bit_dac_0[0].3_bit_dac_0[0].2_bit_dac_0[1].switch2n_3v3_0.VREFH 5_bit_dac_0[1].4_bit_dac_0[0].3_bit_dac_0[0].2_bit_dac_0[1].VREFH VSS.t2 sky130_fd_pr__res_generic_nd__hv w=0.42 l=2.1
X47 5_bit_dac_0[0].4_bit_dac_0[1].3_bit_dac_0[0].D1 5_bit_dac_0[0].4_bit_dac_0[1].3_bit_dac_0[1].2_bit_dac_0[0].switch_n_3v3_v2_0.DX_ VSS.t240 VSS.t239 sky130_fd_pr__nfet_g5v0d10v5 ad=0.145 pd=1.58 as=0.145 ps=1.58 w=0.5 l=0.5
X48 5_bit_dac_0[1].4_bit_dac_0[0].3_bit_dac_0[1].2_bit_dac_0[0].switch2n_3v3_0.VOUTH a_1556_12686# 5_bit_dac_0[1].4_bit_dac_0[0].3_bit_dac_0[1].2_bit_dac_0[0].switch2n_3v3_0.VREFH VCC.t97 sky130_fd_pr__pfet_g5v0d10v5 ad=0.29 pd=2.58 as=0.29 ps=2.58 w=1 l=0.5
X49 5_bit_dac_0[1].switch_n_3v3_0.D3 5_bit_dac_0[1].4_bit_dac_0[1].switch_n_3v3_0.DX_ VSS.t310 VSS.t309 sky130_fd_pr__nfet_g5v0d10v5 ad=0.145 pd=1.58 as=0.145 ps=1.58 w=0.5 l=0.5
X50 VOUT.t0 D5_BUF.t2 5_bit_dac_0[1].VOUT VCC.t204 sky130_fd_pr__pfet_g5v0d10v5 ad=0.29 pd=2.58 as=0.29 ps=2.58 w=1 l=0.5
X51 switch_n_3v3_0.D3.t1 5_bit_dac_0[1].4_bit_dac_0[0].switch_n_3v3_0.DX_ VCC.t186 VCC.t185 sky130_fd_pr__pfet_g5v0d10v5 ad=0.29 pd=2.58 as=0.29 ps=2.58 w=1 l=0.5
X52 a_1556_15142# 5_bit_dac_0[1].4_bit_dac_0[1].3_bit_dac_0[0].2_bit_dac_0[0].D0 VCC.t3 VCC.t2 sky130_fd_pr__pfet_g5v0d10v5 ad=0.29 pd=2.58 as=0.29 ps=2.58 w=1 l=0.5
X53 5_bit_dac_0[1].4_bit_dac_0[1].3_bit_dac_0[1].2_bit_dac_0[0].switch2n_3v3_0.VREFH 5_bit_dac_0[1].4_bit_dac_0[1].3_bit_dac_0[1].VREFH VSS.t2 sky130_fd_pr__res_generic_nd__hv w=0.42 l=2.1
X54 5_bit_dac_0[0].4_bit_dac_0[0].D1 5_bit_dac_0[0].4_bit_dac_0[1].3_bit_dac_0[0].2_bit_dac_0[0].switch_n_3v3_v2_0.DX_ VCC.t16 VCC.t15 sky130_fd_pr__pfet_g5v0d10v5 ad=0.29 pd=2.58 as=0.29 ps=2.58 w=1 l=0.5
X55 5_bit_dac_0[1].4_bit_dac_0[1].3_bit_dac_0[1].2_bit_dac_0[0].switch_n_3v3_v2_0.DX_ 5_bit_dac_0[1].4_bit_dac_0[1].3_bit_dac_0[1].2_bit_dac_0[0].D1 VCC.t213 VCC.t212 sky130_fd_pr__pfet_g5v0d10v5 ad=0.29 pd=2.58 as=0.29 ps=2.58 w=1 l=0.5
X56 5_bit_dac_0[1].4_bit_dac_0[1].3_bit_dac_0[0].VOUT 5_bit_dac_0[1].switch_n_3v3_0.D2 5_bit_dac_0[1].4_bit_dac_0[1].3_bit_dac_0[0].2_bit_dac_0[1].VOUT VCC.t34 sky130_fd_pr__pfet_g5v0d10v5 ad=0.29 pd=2.58 as=0.29 ps=2.58 w=1 l=0.5
X57 5_bit_dac_0[0].4_bit_dac_0[1].switch_n_3v3_0.DX_ switch_n_3v3_0.D3.t2 VCC.t126 VCC.t125 sky130_fd_pr__pfet_g5v0d10v5 ad=0.29 pd=2.58 as=0.29 ps=2.58 w=1 l=0.5
X58 5_bit_dac_0[0].D1 5_bit_dac_0[1].4_bit_dac_0[0].3_bit_dac_0[0].2_bit_dac_0[0].switch_n_3v3_v2_0.DX_ VSS.t210 VSS.t209 sky130_fd_pr__nfet_g5v0d10v5 ad=0.145 pd=1.58 as=0.145 ps=1.58 w=0.5 l=0.5
X59 5_bit_dac_0[1].4_bit_dac_0[0].3_bit_dac_0[0].2_bit_dac_0[0].D0 a_1556_11458# VSS.t278 VSS.t277 sky130_fd_pr__nfet_g5v0d10v5 ad=0.145 pd=1.58 as=0.145 ps=1.58 w=0.5 l=0.5
X60 5_bit_dac_0[0].VOUT D4_BUF.t2 5_bit_dac_0[0].4_bit_dac_0[0].VOUT VSS.t242 sky130_fd_pr__nfet_g5v0d10v5 ad=0.145 pd=1.58 as=0.145 ps=1.58 w=0.5 l=0.5
X61 5_bit_dac_0[0].4_bit_dac_0[1].3_bit_dac_0[0].2_bit_dac_0[0].VOUT 5_bit_dac_0[0].4_bit_dac_0[0].D1 5_bit_dac_0[0].4_bit_dac_0[1].3_bit_dac_0[0].2_bit_dac_0[0].switch2n_3v3_0.VOUTL VCC.t132 sky130_fd_pr__pfet_g5v0d10v5 ad=0.29 pd=2.58 as=0.29 ps=2.58 w=1 l=0.5
X62 5_bit_dac_0[1].4_bit_dac_0[0].D1 5_bit_dac_0[1].4_bit_dac_0[1].3_bit_dac_0[0].2_bit_dac_0[0].switch_n_3v3_v2_0.DX_ VCC.t51 VCC.t50 sky130_fd_pr__pfet_g5v0d10v5 ad=0.29 pd=2.58 as=0.29 ps=2.58 w=1 l=0.5
X63 D3_BUF.t0 5_bit_dac_0[0].4_bit_dac_0[0].switch_n_3v3_0.DX_ VSS.t20 VSS.t19 sky130_fd_pr__nfet_g5v0d10v5 ad=0.145 pd=1.58 as=0.145 ps=1.58 w=0.5 l=0.5
X64 5_bit_dac_0[1].4_bit_dac_0[0].3_bit_dac_0[0].switch_n_3v3_1.DX_ 5_bit_dac_0[1].4_bit_dac_0[0].switch_n_3v3_0.D2 VSS.t317 VSS.t316 sky130_fd_pr__nfet_g5v0d10v5 ad=0.145 pd=1.58 as=0.145 ps=1.58 w=0.5 l=0.5
X65 5_bit_dac_0[0].4_bit_dac_0[0].3_bit_dac_0[1].2_bit_dac_0[0].switch2n_3v3_0.VREFH 5_bit_dac_0[0].4_bit_dac_0[0].3_bit_dac_0[1].VREFH VSS.t2 sky130_fd_pr__res_generic_nd__hv w=0.42 l=2.1
X66 5_bit_dac_0[1].4_bit_dac_0[0].3_bit_dac_0[0].D0 a_1556_12686# VCC.t96 VCC.t95 sky130_fd_pr__pfet_g5v0d10v5 ad=0.29 pd=2.58 as=0.29 ps=2.58 w=1 l=0.5
X67 5_bit_dac_0[1].4_bit_dac_0[1].3_bit_dac_0[1].2_bit_dac_0[1].VOUT 5_bit_dac_0[1].4_bit_dac_0[1].3_bit_dac_0[1].2_bit_dac_0[0].D1 5_bit_dac_0[1].4_bit_dac_0[1].3_bit_dac_0[1].2_bit_dac_0[1].switch2n_3v3_0.VOUTL VCC.t211 sky130_fd_pr__pfet_g5v0d10v5 ad=0.29 pd=2.58 as=0.29 ps=2.58 w=1 l=0.5
X68 D4_BUF.t0 5_bit_dac_0[0].switch_n_3v3_0.DX_ VSS.t69 VSS.t68 sky130_fd_pr__nfet_g5v0d10v5 ad=0.145 pd=1.58 as=0.145 ps=1.58 w=0.5 l=0.5
X69 5_bit_dac_0[0].4_bit_dac_0[0].VOUT 5_bit_dac_0[0].switch_n_3v3_0.DX_ 5_bit_dac_0[0].VOUT VCC.t61 sky130_fd_pr__pfet_g5v0d10v5 ad=0.29 pd=2.58 as=0.29 ps=2.58 w=1 l=0.5
X70 5_bit_dac_0[1].4_bit_dac_0[0].3_bit_dac_0[0].2_bit_dac_0[0].switch2n_3v3_0.VOUTL 5_bit_dac_0[1].4_bit_dac_0[0].3_bit_dac_0[0].2_bit_dac_0[0].switch_n_3v3_v2_0.DX_ 5_bit_dac_0[1].4_bit_dac_0[0].3_bit_dac_0[0].2_bit_dac_0[0].VOUT VSS.t208 sky130_fd_pr__nfet_g5v0d10v5 ad=0.145 pd=1.58 as=0.145 ps=1.58 w=0.5 l=0.5
X71 5_bit_dac_0[1].4_bit_dac_0[1].switch_n_3v3_0.DX_ D3.t0 VSS.t271 VSS.t270 sky130_fd_pr__nfet_g5v0d10v5 ad=0.145 pd=1.58 as=0.145 ps=1.58 w=0.5 l=0.5
X72 5_bit_dac_0[0].4_bit_dac_0[1].3_bit_dac_0[0].2_bit_dac_0[0].switch2n_3v3_0.VREFH 5_bit_dac_0[0].4_bit_dac_0[1].VREFH VSS.t2 sky130_fd_pr__res_generic_nd__hv w=0.42 l=2.1
X73 5_bit_dac_0[1].4_bit_dac_0[0].switch_n_3v3_0.DX_ 5_bit_dac_0[1].switch_n_3v3_0.D3 VCC.t148 VCC.t147 sky130_fd_pr__pfet_g5v0d10v5 ad=0.29 pd=2.58 as=0.29 ps=2.58 w=1 l=0.5
X74 5_bit_dac_0[1].4_bit_dac_0[1].3_bit_dac_0[0].2_bit_dac_0[0].switch2n_3v3_0.VOUTH a_1556_15142# 5_bit_dac_0[1].4_bit_dac_0[1].3_bit_dac_0[0].2_bit_dac_0[0].switch2n_3v3_0.R_H VSS.t33 sky130_fd_pr__nfet_g5v0d10v5 ad=0.145 pd=1.58 as=0.145 ps=1.58 w=0.5 l=0.5
X75 switch_n_3v3_0.D4.t0 5_bit_dac_0[1].switch_n_3v3_0.DX_ VSS.t217 VSS.t216 sky130_fd_pr__nfet_g5v0d10v5 ad=0.145 pd=1.58 as=0.145 ps=1.58 w=0.5 l=0.5
X76 5_bit_dac_0[1].4_bit_dac_0[0].3_bit_dac_0[0].2_bit_dac_0[0].switch_n_3v3_v2_0.DX_ 5_bit_dac_0[1].4_bit_dac_0[0].3_bit_dac_0[0].2_bit_dac_0[0].D1 VSS.t97 VSS.t96 sky130_fd_pr__nfet_g5v0d10v5 ad=0.145 pd=1.58 as=0.145 ps=1.58 w=0.5 l=0.5
X77 5_bit_dac_0[1].4_bit_dac_0[1].3_bit_dac_0[1].2_bit_dac_0[0].switch2n_3v3_0.R_L 5_bit_dac_0[1].4_bit_dac_0[1].3_bit_dac_0[0].D0 5_bit_dac_0[1].4_bit_dac_0[1].3_bit_dac_0[1].2_bit_dac_0[0].switch2n_3v3_0.VOUTL VSS.t144 sky130_fd_pr__nfet_g5v0d10v5 ad=0.145 pd=1.58 as=0.145 ps=1.58 w=0.5 l=0.5
X78 5_bit_dac_0[1].4_bit_dac_0[1].3_bit_dac_0[0].2_bit_dac_0[0].switch2n_3v3_0.VREFH 5_bit_dac_0[1].4_bit_dac_0[1].VREFH VSS.t2 sky130_fd_pr__res_generic_nd__hv w=0.42 l=2.1
X79 5_bit_dac_0[0].4_bit_dac_0[1].3_bit_dac_0[1].2_bit_dac_0[0].switch2n_3v3_0.VREFH 5_bit_dac_0[0].4_bit_dac_0[1].3_bit_dac_0[0].D0 5_bit_dac_0[0].4_bit_dac_0[1].3_bit_dac_0[1].2_bit_dac_0[0].switch2n_3v3_0.VOUTH VSS.t17 sky130_fd_pr__nfet_g5v0d10v5 ad=0.145 pd=1.58 as=0.145 ps=1.58 w=0.5 l=0.5
X80 5_bit_dac_0[1].4_bit_dac_0[0].3_bit_dac_0[0].2_bit_dac_0[0].switch2n_3v3_0.R_L 5_bit_dac_0[1].4_bit_dac_0[0].3_bit_dac_0[0].2_bit_dac_0[1].VREFH VSS.t29 sky130_fd_pr__res_generic_nd__hv w=0.42 l=2.1
X81 5_bit_dac_0[1].4_bit_dac_0[0].3_bit_dac_0[1].2_bit_dac_0[0].switch2n_3v3_0.VOUTL a_1556_12686# 5_bit_dac_0[1].4_bit_dac_0[0].3_bit_dac_0[1].2_bit_dac_0[1].VREFH VSS.t101 sky130_fd_pr__nfet_g5v0d10v5 ad=0.145 pd=1.58 as=0.145 ps=1.58 w=0.5 l=0.5
X82 5_bit_dac_0[1].4_bit_dac_0[1].3_bit_dac_0[0].2_bit_dac_0[0].switch_n_3v3_v2_0.DX_ 5_bit_dac_0[1].4_bit_dac_0[1].3_bit_dac_0[0].2_bit_dac_0[0].D1 VCC.t19 VCC.t18 sky130_fd_pr__pfet_g5v0d10v5 ad=0.29 pd=2.58 as=0.29 ps=2.58 w=1 l=0.5
X83 5_bit_dac_0[0].4_bit_dac_0[0].3_bit_dac_0[1].2_bit_dac_0[0].D1 5_bit_dac_0[0].4_bit_dac_0[0].3_bit_dac_0[1].2_bit_dac_0[1].switch_n_3v3_v2_0.DX_ VSS.t165 VSS.t164 sky130_fd_pr__nfet_g5v0d10v5 ad=0.145 pd=1.58 as=0.145 ps=1.58 w=0.5 l=0.5
X84 5_bit_dac_0[1].4_bit_dac_0[0].3_bit_dac_0[1].2_bit_dac_0[1].switch2n_3v3_0.R_L 5_bit_dac_0[1].4_bit_dac_0[0].3_bit_dac_0[1].2_bit_dac_0[0].D0 5_bit_dac_0[1].4_bit_dac_0[0].3_bit_dac_0[1].2_bit_dac_0[1].switch2n_3v3_0.VOUTL VSS.t207 sky130_fd_pr__nfet_g5v0d10v5 ad=0.145 pd=1.58 as=0.145 ps=1.58 w=0.5 l=0.5
X85 5_bit_dac_0[1].4_bit_dac_0[0].3_bit_dac_0[1].VOUT 5_bit_dac_0[1].4_bit_dac_0[0].switch_n_3v3_0.D2 5_bit_dac_0[1].4_bit_dac_0[0].3_bit_dac_0[1].2_bit_dac_0[1].VOUT VCC.t313 sky130_fd_pr__pfet_g5v0d10v5 ad=0.29 pd=2.58 as=0.29 ps=2.58 w=1 l=0.5
X86 a_1556_1634# 5_bit_dac_0[0].4_bit_dac_0[0].3_bit_dac_0[0].D0 VCC.t40 VCC.t39 sky130_fd_pr__pfet_g5v0d10v5 ad=0.29 pd=2.58 as=0.29 ps=2.58 w=1 l=0.5
X87 a_1556_6546# 5_bit_dac_0[0].4_bit_dac_0[1].3_bit_dac_0[0].D0 VSS.t16 VSS.t15 sky130_fd_pr__nfet_g5v0d10v5 ad=0.145 pd=1.58 as=0.145 ps=1.58 w=0.5 l=0.5
X88 5_bit_dac_0[1].4_bit_dac_0[0].3_bit_dac_0[1].2_bit_dac_0[1].switch2n_3v3_0.R_L 5_bit_dac_0[1].4_bit_dac_0[1].VREFH VSS.t29 sky130_fd_pr__res_generic_nd__hv w=0.42 l=2.1
X89 5_bit_dac_0[1].4_bit_dac_0[1].3_bit_dac_0[0].2_bit_dac_0[0].switch2n_3v3_0.R_H 5_bit_dac_0[1].4_bit_dac_0[1].3_bit_dac_0[0].2_bit_dac_0[0].switch2n_3v3_0.R_L VSS.t1 sky130_fd_pr__res_generic_nd__hv w=0.42 l=2.1
X90 5_bit_dac_0[1].4_bit_dac_0[1].VOUT 5_bit_dac_0[1].switch_n_3v3_0.DX_ 5_bit_dac_0[1].VOUT VSS.t215 sky130_fd_pr__nfet_g5v0d10v5 ad=0.145 pd=1.58 as=0.145 ps=1.58 w=0.5 l=0.5
X91 5_bit_dac_0[1].4_bit_dac_0[1].3_bit_dac_0[1].2_bit_dac_0[1].switch2n_3v3_0.R_H 5_bit_dac_0[1].4_bit_dac_0[1].3_bit_dac_0[1].2_bit_dac_0[1].switch2n_3v3_0.R_L VSS.t1 sky130_fd_pr__res_generic_nd__hv w=0.42 l=2.1
X92 5_bit_dac_0[0].4_bit_dac_0[1].3_bit_dac_0[0].2_bit_dac_0[0].switch2n_3v3_0.R_H 5_bit_dac_0[0].4_bit_dac_0[0].D0 5_bit_dac_0[0].4_bit_dac_0[1].3_bit_dac_0[0].2_bit_dac_0[0].switch2n_3v3_0.VOUTH VCC.t87 sky130_fd_pr__pfet_g5v0d10v5 ad=0.29 pd=2.58 as=0.29 ps=2.58 w=1 l=0.5
X93 5_bit_dac_0[0].4_bit_dac_0[1].3_bit_dac_0[1].2_bit_dac_0[0].D1 5_bit_dac_0[0].4_bit_dac_0[1].3_bit_dac_0[1].2_bit_dac_0[1].switch_n_3v3_v2_0.DX_ VCC.t160 VCC.t159 sky130_fd_pr__pfet_g5v0d10v5 ad=0.29 pd=2.58 as=0.29 ps=2.58 w=1 l=0.5
X94 5_bit_dac_0[1].4_bit_dac_0[0].3_bit_dac_0[0].2_bit_dac_0[0].switch2n_3v3_0.VOUTL a_1556_10230# 5_bit_dac_0[1].4_bit_dac_0[0].3_bit_dac_0[0].2_bit_dac_0[0].switch2n_3v3_0.R_L VCC.t303 sky130_fd_pr__pfet_g5v0d10v5 ad=0.29 pd=2.58 as=0.29 ps=2.58 w=1 l=0.5
X95 5_bit_dac_0[1].4_bit_dac_0[1].3_bit_dac_0[1].2_bit_dac_0[1].switch2n_3v3_0.VOUTL a_1556_18826# VREFL.t1 VSS.t260 sky130_fd_pr__nfet_g5v0d10v5 ad=0.145 pd=1.58 as=0.145 ps=1.58 w=0.5 l=0.5
X96 a_1556_4090# 5_bit_dac_0[0].4_bit_dac_0[0].D0 VCC.t86 VCC.t85 sky130_fd_pr__pfet_g5v0d10v5 ad=0.29 pd=2.58 as=0.29 ps=2.58 w=1 l=0.5
X97 5_bit_dac_0[0].4_bit_dac_0[1].3_bit_dac_0[0].2_bit_dac_0[1].switch2n_3v3_0.VREFH 5_bit_dac_0[0].4_bit_dac_0[1].3_bit_dac_0[0].2_bit_dac_0[1].switch2n_3v3_0.R_H VSS.t0 sky130_fd_pr__res_generic_nd__hv w=0.42 l=2.1
X98 5_bit_dac_0[1].4_bit_dac_0[0].3_bit_dac_0[0].2_bit_dac_0[1].switch2n_3v3_0.VOUTH 5_bit_dac_0[1].4_bit_dac_0[0].3_bit_dac_0[0].2_bit_dac_0[1].switch_n_3v3_v2_0.DX_ 5_bit_dac_0[1].4_bit_dac_0[0].3_bit_dac_0[0].2_bit_dac_0[1].VOUT VCC.t180 sky130_fd_pr__pfet_g5v0d10v5 ad=0.29 pd=2.58 as=0.29 ps=2.58 w=1 l=0.5
X99 5_bit_dac_0[1].4_bit_dac_0[1].3_bit_dac_0[0].2_bit_dac_0[1].switch2n_3v3_0.VOUTL a_1556_16370# 5_bit_dac_0[1].4_bit_dac_0[1].3_bit_dac_0[0].2_bit_dac_0[1].switch2n_3v3_0.R_L VCC.t27 sky130_fd_pr__pfet_g5v0d10v5 ad=0.29 pd=2.58 as=0.29 ps=2.58 w=1 l=0.5
X100 5_bit_dac_0[1].4_bit_dac_0[0].D0 a_1556_15142# VSS.t32 VSS.t31 sky130_fd_pr__nfet_g5v0d10v5 ad=0.145 pd=1.58 as=0.145 ps=1.58 w=0.5 l=0.5
X101 5_bit_dac_0[0].4_bit_dac_0[1].3_bit_dac_0[1].2_bit_dac_0[1].VOUT 5_bit_dac_0[0].4_bit_dac_0[1].3_bit_dac_0[1].2_bit_dac_0[0].D1 5_bit_dac_0[0].4_bit_dac_0[1].3_bit_dac_0[1].2_bit_dac_0[1].switch2n_3v3_0.VOUTL VCC.t163 sky130_fd_pr__pfet_g5v0d10v5 ad=0.29 pd=2.58 as=0.29 ps=2.58 w=1 l=0.5
X102 5_bit_dac_0[1].switch_n_3v3_0.DX_ D4.t0 VSS.t46 VSS.t45 sky130_fd_pr__nfet_g5v0d10v5 ad=0.145 pd=1.58 as=0.145 ps=1.58 w=0.5 l=0.5
X103 5_bit_dac_0[0].4_bit_dac_0[1].switch_n_3v3_0.D2 5_bit_dac_0[0].4_bit_dac_0[1].3_bit_dac_0[1].switch_n_3v3_1.DX_ VSS.t66 VSS.t65 sky130_fd_pr__nfet_g5v0d10v5 ad=0.145 pd=1.58 as=0.145 ps=1.58 w=0.5 l=0.5
X104 5_bit_dac_0[0].4_bit_dac_0[1].3_bit_dac_0[1].2_bit_dac_0[0].VOUT 5_bit_dac_0[0].4_bit_dac_0[1].3_bit_dac_0[1].switch_n_3v3_1.DX_ 5_bit_dac_0[0].4_bit_dac_0[1].3_bit_dac_0[1].VOUT VCC.t58 sky130_fd_pr__pfet_g5v0d10v5 ad=0.29 pd=2.58 as=0.29 ps=2.58 w=1 l=0.5
X105 5_bit_dac_0[0].VOUT switch_n_3v3_0.DX_ VOUT.t3 VCC.t75 sky130_fd_pr__pfet_g5v0d10v5 ad=0.29 pd=2.58 as=0.29 ps=2.58 w=1 l=0.5
X106 5_bit_dac_0[0].4_bit_dac_0[1].3_bit_dac_0[1].2_bit_dac_0[0].switch2n_3v3_0.VOUTL a_1556_7774# 5_bit_dac_0[0].4_bit_dac_0[1].3_bit_dac_0[1].2_bit_dac_0[1].VREFH VSS.t229 sky130_fd_pr__nfet_g5v0d10v5 ad=0.145 pd=1.58 as=0.145 ps=1.58 w=0.5 l=0.5
X107 5_bit_dac_0[0].4_bit_dac_0[1].3_bit_dac_0[1].2_bit_dac_0[1].switch2n_3v3_0.VREFH 5_bit_dac_0[0].4_bit_dac_0[1].3_bit_dac_0[1].2_bit_dac_0[1].VREFH VSS.t2 sky130_fd_pr__res_generic_nd__hv w=0.42 l=2.1
X108 5_bit_dac_0[1].4_bit_dac_0[1].3_bit_dac_0[0].2_bit_dac_0[0].VOUT 5_bit_dac_0[1].4_bit_dac_0[1].3_bit_dac_0[0].switch_n_3v3_1.DX_ 5_bit_dac_0[1].4_bit_dac_0[1].3_bit_dac_0[0].VOUT VCC.t6 sky130_fd_pr__pfet_g5v0d10v5 ad=0.29 pd=2.58 as=0.29 ps=2.58 w=1 l=0.5
X109 5_bit_dac_0[0].4_bit_dac_0[1].3_bit_dac_0[0].2_bit_dac_0[0].switch2n_3v3_0.VOUTL a_1556_5318# 5_bit_dac_0[0].4_bit_dac_0[1].3_bit_dac_0[0].2_bit_dac_0[0].switch2n_3v3_0.R_L VCC.t168 sky130_fd_pr__pfet_g5v0d10v5 ad=0.29 pd=2.58 as=0.29 ps=2.58 w=1 l=0.5
X110 a_1556_4090# 5_bit_dac_0[0].4_bit_dac_0[0].D0 VSS.t93 VSS.t92 sky130_fd_pr__nfet_g5v0d10v5 ad=0.145 pd=1.58 as=0.145 ps=1.58 w=0.5 l=0.5
X111 5_bit_dac_0[1].4_bit_dac_0[1].3_bit_dac_0[0].2_bit_dac_0[1].switch2n_3v3_0.VOUTL a_1556_16370# 5_bit_dac_0[1].4_bit_dac_0[1].3_bit_dac_0[1].VREFH VSS.t37 sky130_fd_pr__nfet_g5v0d10v5 ad=0.145 pd=1.58 as=0.145 ps=1.58 w=0.5 l=0.5
X112 5_bit_dac_0[0].4_bit_dac_0[0].3_bit_dac_0[0].2_bit_dac_0[0].switch2n_3v3_0.R_H 5_bit_dac_0[0].4_bit_dac_0[0].3_bit_dac_0[0].2_bit_dac_0[0].switch2n_3v3_0.R_L VSS.t1 sky130_fd_pr__res_generic_nd__hv w=0.42 l=2.1
X113 5_bit_dac_0[0].4_bit_dac_0[0].3_bit_dac_0[0].2_bit_dac_0[0].switch_n_3v3_v2_0.DX_ 5_bit_dac_0[0].4_bit_dac_0[0].3_bit_dac_0[0].2_bit_dac_0[0].D1 VSS.t286 VSS.t285 sky130_fd_pr__nfet_g5v0d10v5 ad=0.145 pd=1.58 as=0.145 ps=1.58 w=0.5 l=0.5
X114 VREFL.t2 5_bit_dac_0[1].4_bit_dac_0[1].3_bit_dac_0[1].2_bit_dac_0[0].D0 5_bit_dac_0[1].4_bit_dac_0[1].3_bit_dac_0[1].2_bit_dac_0[1].switch2n_3v3_0.VOUTL VCC.t283 sky130_fd_pr__pfet_g5v0d10v5 ad=0.29 pd=2.58 as=0.29 ps=2.58 w=1 l=0.5
X115 5_bit_dac_0[1].4_bit_dac_0[1].3_bit_dac_0[1].2_bit_dac_0[1].switch2n_3v3_0.VOUTH 5_bit_dac_0[1].4_bit_dac_0[1].3_bit_dac_0[1].2_bit_dac_0[1].switch_n_3v3_v2_0.DX_ 5_bit_dac_0[1].4_bit_dac_0[1].3_bit_dac_0[1].2_bit_dac_0[1].VOUT VCC.t250 sky130_fd_pr__pfet_g5v0d10v5 ad=0.29 pd=2.58 as=0.29 ps=2.58 w=1 l=0.5
X116 5_bit_dac_0[0].4_bit_dac_0[1].3_bit_dac_0[1].2_bit_dac_0[1].switch2n_3v3_0.R_H 5_bit_dac_0[0].4_bit_dac_0[1].3_bit_dac_0[1].2_bit_dac_0[0].D0 5_bit_dac_0[0].4_bit_dac_0[1].3_bit_dac_0[1].2_bit_dac_0[1].switch2n_3v3_0.VOUTH VCC.t118 sky130_fd_pr__pfet_g5v0d10v5 ad=0.29 pd=2.58 as=0.29 ps=2.58 w=1 l=0.5
X117 5_bit_dac_0[1].4_bit_dac_0[0].3_bit_dac_0[1].2_bit_dac_0[1].switch2n_3v3_0.VOUTL a_1556_13914# 5_bit_dac_0[1].4_bit_dac_0[0].3_bit_dac_0[1].2_bit_dac_0[1].switch2n_3v3_0.R_L VCC.t190 sky130_fd_pr__pfet_g5v0d10v5 ad=0.29 pd=2.58 as=0.29 ps=2.58 w=1 l=0.5
X118 a_1556_7774# 5_bit_dac_0[0].4_bit_dac_0[1].3_bit_dac_0[1].2_bit_dac_0[0].D0 VCC.t117 VCC.t116 sky130_fd_pr__pfet_g5v0d10v5 ad=0.29 pd=2.58 as=0.29 ps=2.58 w=1 l=0.5
X119 5_bit_dac_0[0].4_bit_dac_0[0].3_bit_dac_0[0].2_bit_dac_0[0].switch2n_3v3_0.VREFH 5_bit_dac_0[0].4_bit_dac_0[0].3_bit_dac_0[0].2_bit_dac_0[0].switch2n_3v3_0.R_H VSS.t0 sky130_fd_pr__res_generic_nd__hv w=0.42 l=2.1
X120 5_bit_dac_0[1].4_bit_dac_0[0].3_bit_dac_0[1].2_bit_dac_0[0].VOUT 5_bit_dac_0[1].4_bit_dac_0[0].3_bit_dac_0[1].switch_n_3v3_1.DX_ 5_bit_dac_0[1].4_bit_dac_0[0].3_bit_dac_0[1].VOUT VCC.t228 sky130_fd_pr__pfet_g5v0d10v5 ad=0.29 pd=2.58 as=0.29 ps=2.58 w=1 l=0.5
X121 5_bit_dac_0[0].4_bit_dac_0[0].3_bit_dac_0[0].2_bit_dac_0[0].D0 a_1556_1634# VCC.t219 VCC.t218 sky130_fd_pr__pfet_g5v0d10v5 ad=0.29 pd=2.58 as=0.29 ps=2.58 w=1 l=0.5
X122 5_bit_dac_0[0].4_bit_dac_0[1].3_bit_dac_0[0].2_bit_dac_0[0].D0 a_1556_6546# VSS.t252 VSS.t251 sky130_fd_pr__nfet_g5v0d10v5 ad=0.145 pd=1.58 as=0.145 ps=1.58 w=0.5 l=0.5
X123 5_bit_dac_0[1].4_bit_dac_0[0].3_bit_dac_0[1].2_bit_dac_0[1].switch2n_3v3_0.VREFH 5_bit_dac_0[1].4_bit_dac_0[0].3_bit_dac_0[1].2_bit_dac_0[1].switch2n_3v3_0.R_H VSS.t0 sky130_fd_pr__res_generic_nd__hv w=0.42 l=2.1
X124 5_bit_dac_0[0].4_bit_dac_0[0].3_bit_dac_0[0].2_bit_dac_0[1].switch2n_3v3_0.R_L 5_bit_dac_0[0].4_bit_dac_0[0].3_bit_dac_0[0].2_bit_dac_0[0].D0 5_bit_dac_0[0].4_bit_dac_0[0].3_bit_dac_0[0].2_bit_dac_0[1].switch2n_3v3_0.VOUTL VSS.t303 sky130_fd_pr__nfet_g5v0d10v5 ad=0.145 pd=1.58 as=0.145 ps=1.58 w=0.5 l=0.5
X125 5_bit_dac_0[0].4_bit_dac_0[0].3_bit_dac_0[1].2_bit_dac_0[0].D0 a_1556_4090# VCC.t109 VCC.t108 sky130_fd_pr__pfet_g5v0d10v5 ad=0.29 pd=2.58 as=0.29 ps=2.58 w=1 l=0.5
X126 5_bit_dac_0[1].4_bit_dac_0[0].3_bit_dac_0[1].2_bit_dac_0[0].VOUT 5_bit_dac_0[1].4_bit_dac_0[0].3_bit_dac_0[0].D1 5_bit_dac_0[1].4_bit_dac_0[0].3_bit_dac_0[1].2_bit_dac_0[0].switch2n_3v3_0.VOUTH VSS.t190 sky130_fd_pr__nfet_g5v0d10v5 ad=0.145 pd=1.58 as=0.145 ps=1.58 w=0.5 l=0.5
X127 5_bit_dac_0[0].4_bit_dac_0[1].3_bit_dac_0[1].2_bit_dac_0[1].switch2n_3v3_0.VOUTL a_1556_9002# 5_bit_dac_0[0].4_bit_dac_0[1].3_bit_dac_0[1].2_bit_dac_0[1].switch2n_3v3_0.R_L VCC.t112 sky130_fd_pr__pfet_g5v0d10v5 ad=0.29 pd=2.58 as=0.29 ps=2.58 w=1 l=0.5
X128 5_bit_dac_0[0].4_bit_dac_0[1].3_bit_dac_0[1].VREFH 5_bit_dac_0[0].4_bit_dac_0[1].3_bit_dac_0[0].2_bit_dac_0[0].D0 5_bit_dac_0[0].4_bit_dac_0[1].3_bit_dac_0[0].2_bit_dac_0[1].switch2n_3v3_0.VOUTL VCC.t240 sky130_fd_pr__pfet_g5v0d10v5 ad=0.29 pd=2.58 as=0.29 ps=2.58 w=1 l=0.5
X129 5_bit_dac_0[1].4_bit_dac_0[1].3_bit_dac_0[1].2_bit_dac_0[1].VOUT 5_bit_dac_0[1].4_bit_dac_0[1].3_bit_dac_0[1].2_bit_dac_0[0].D1 5_bit_dac_0[1].4_bit_dac_0[1].3_bit_dac_0[1].2_bit_dac_0[1].switch2n_3v3_0.VOUTH VSS.t220 sky130_fd_pr__nfet_g5v0d10v5 ad=0.145 pd=1.58 as=0.145 ps=1.58 w=0.5 l=0.5
X130 5_bit_dac_0[0].4_bit_dac_0[0].3_bit_dac_0[0].2_bit_dac_0[0].switch2n_3v3_0.VOUTL a_1556_406# 5_bit_dac_0[0].4_bit_dac_0[0].3_bit_dac_0[0].2_bit_dac_0[0].switch2n_3v3_0.R_L VCC.t68 sky130_fd_pr__pfet_g5v0d10v5 ad=0.29 pd=2.58 as=0.29 ps=2.58 w=1 l=0.5
X131 5_bit_dac_0[0].4_bit_dac_0[0].3_bit_dac_0[1].2_bit_dac_0[0].switch2n_3v3_0.VOUTH a_1556_2862# 5_bit_dac_0[0].4_bit_dac_0[0].3_bit_dac_0[1].2_bit_dac_0[0].switch2n_3v3_0.R_H VSS.t80 sky130_fd_pr__nfet_g5v0d10v5 ad=0.145 pd=1.58 as=0.145 ps=1.58 w=0.5 l=0.5
X132 5_bit_dac_0[0].4_bit_dac_0[1].3_bit_dac_0[0].2_bit_dac_0[0].switch2n_3v3_0.VOUTH a_1556_5318# 5_bit_dac_0[0].4_bit_dac_0[1].3_bit_dac_0[0].2_bit_dac_0[0].switch2n_3v3_0.R_H VSS.t178 sky130_fd_pr__nfet_g5v0d10v5 ad=0.145 pd=1.58 as=0.145 ps=1.58 w=0.5 l=0.5