* SPICE3 file created from 4_bit_dac.ext - technology: sky130A

.subckt x4_bit_dac D0 VREFL D0_BUF VREFH D1 D1_BUF D2 D3 D2_BUF D3_BUF VOUT VSS VCC
X0 3_bit_dac_0[0].2_bit_dac_0[0].switch2n_3v3_0.R_H D0_BUF.t2 3_bit_dac_0[0].2_bit_dac_0[0].switch2n_3v3_0.VOUTH VCC.t63 sky130_fd_pr__pfet_g5v0d10v5 ad=0.29 pd=2.58 as=0.29 ps=2.58 w=1 l=0.5
X1 3_bit_dac_0[1].2_bit_dac_0[0].switch2n_3v3_0.R_L 3_bit_dac_0[1].2_bit_dac_0[1].VREFH VSS.t34 sky130_fd_pr__res_generic_nd__hv w=0.42 l=2.1
X2 3_bit_dac_0[1].2_bit_dac_0[0].switch2n_3v3_0.R_L 3_bit_dac_0[0].D0 3_bit_dac_0[1].2_bit_dac_0[0].switch2n_3v3_0.VOUTL VSS.t69 sky130_fd_pr__nfet_g5v0d10v5 ad=0.145 pd=1.58 as=0.145 ps=1.58 w=0.5 l=0.5
X3 3_bit_dac_0[1].2_bit_dac_0[0].switch2n_3v3_0.VOUTL a_1556_2862# 3_bit_dac_0[1].2_bit_dac_0[0].switch2n_3v3_0.R_L VCC.t34 sky130_fd_pr__pfet_g5v0d10v5 ad=0.29 pd=2.58 as=0.29 ps=2.58 w=1 l=0.5
X4 3_bit_dac_0[1].2_bit_dac_0[1].switch2n_3v3_0.VOUTH a_1556_4090# 3_bit_dac_0[1].2_bit_dac_0[1].switch2n_3v3_0.VREFH VCC.t54 sky130_fd_pr__pfet_g5v0d10v5 ad=0.29 pd=2.58 as=0.29 ps=2.58 w=1 l=0.5
X5 3_bit_dac_0[0].2_bit_dac_0[1].switch2n_3v3_0.VOUTH a_1556_1634# 3_bit_dac_0[0].2_bit_dac_0[1].switch2n_3v3_0.VREFH VCC.t29 sky130_fd_pr__pfet_g5v0d10v5 ad=0.29 pd=2.58 as=0.29 ps=2.58 w=1 l=0.5
X6 3_bit_dac_0[0].2_bit_dac_0[1].switch2n_3v3_0.VOUTL 3_bit_dac_0[0].2_bit_dac_0[1].switch_n_3v3_v2_0.DX_ 3_bit_dac_0[0].2_bit_dac_0[1].VOUT VSS.t60 sky130_fd_pr__nfet_g5v0d10v5 ad=0.145 pd=1.58 as=0.145 ps=1.58 w=0.5 l=0.5
X7 3_bit_dac_0[0].2_bit_dac_0[1].switch_n_3v3_v2_0.DX_ 3_bit_dac_0[0].D1 VSS.t77 VSS.t76 sky130_fd_pr__nfet_g5v0d10v5 ad=0.145 pd=1.58 as=0.145 ps=1.58 w=0.5 l=0.5
X8 3_bit_dac_0[1].2_bit_dac_0[1].switch2n_3v3_0.VOUTH a_1556_4090# 3_bit_dac_0[1].2_bit_dac_0[1].switch2n_3v3_0.R_H VSS.t55 sky130_fd_pr__nfet_g5v0d10v5 ad=0.145 pd=1.58 as=0.145 ps=1.58 w=0.5 l=0.5
X9 3_bit_dac_0[0].2_bit_dac_0[0].switch2n_3v3_0.VOUTL 3_bit_dac_0[0].2_bit_dac_0[0].switch_n_3v3_v2_0.DX_ 3_bit_dac_0[0].2_bit_dac_0[0].VOUT VSS.t48 sky130_fd_pr__nfet_g5v0d10v5 ad=0.145 pd=1.58 as=0.145 ps=1.58 w=0.5 l=0.5
X10 3_bit_dac_0[0].switch_n_3v3_1.DX_ switch_n_3v3_0.D2 VCC.t16 VCC.t15 sky130_fd_pr__pfet_g5v0d10v5 ad=0.29 pd=2.58 as=0.29 ps=2.58 w=1 l=0.5
X11 3_bit_dac_0[1].switch_n_3v3_1.DX_ D2.t0 VCC.t39 VCC.t38 sky130_fd_pr__pfet_g5v0d10v5 ad=0.29 pd=2.58 as=0.29 ps=2.58 w=1 l=0.5
X12 3_bit_dac_0[0].VOUT D2_BUF.t2 3_bit_dac_0[0].2_bit_dac_0[0].VOUT VSS.t41 sky130_fd_pr__nfet_g5v0d10v5 ad=0.145 pd=1.58 as=0.145 ps=1.58 w=0.5 l=0.5
X13 3_bit_dac_0[1].2_bit_dac_0[0].switch_n_3v3_v2_0.DX_ 3_bit_dac_0[1].2_bit_dac_0[0].D1 VCC.t19 VCC.t18 sky130_fd_pr__pfet_g5v0d10v5 ad=0.29 pd=2.58 as=0.29 ps=2.58 w=1 l=0.5
X14 D3_BUF.t0 switch_n_3v3_0.DX_ VSS.t11 VSS.t10 sky130_fd_pr__nfet_g5v0d10v5 ad=0.145 pd=1.58 as=0.145 ps=1.58 w=0.5 l=0.5
X15 3_bit_dac_0[1].2_bit_dac_0[0].switch2n_3v3_0.VREFH 3_bit_dac_0[1].VREFH VSS.t35 sky130_fd_pr__res_generic_nd__hv w=0.42 l=2.1
X16 3_bit_dac_0[1].2_bit_dac_0[0].D1 3_bit_dac_0[1].2_bit_dac_0[1].switch_n_3v3_v2_0.DX_ VSS.t38 VSS.t37 sky130_fd_pr__nfet_g5v0d10v5 ad=0.145 pd=1.58 as=0.145 ps=1.58 w=0.5 l=0.5
X17 a_1556_1634# 3_bit_dac_0[0].D0 VCC.t67 VCC.t66 sky130_fd_pr__pfet_g5v0d10v5 ad=0.29 pd=2.58 as=0.29 ps=2.58 w=1 l=0.5
X18 a_1556_4090# D0.t0 VCC.t21 VCC.t20 sky130_fd_pr__pfet_g5v0d10v5 ad=0.29 pd=2.58 as=0.29 ps=2.58 w=1 l=0.5
X19 a_1556_4090# D0.t1 VSS.t43 VSS.t42 sky130_fd_pr__nfet_g5v0d10v5 ad=0.145 pd=1.58 as=0.145 ps=1.58 w=0.5 l=0.5
X20 3_bit_dac_0[0].2_bit_dac_0[0].switch_n_3v3_v2_0.DX_ 3_bit_dac_0[0].2_bit_dac_0[0].D1 VSS.t74 VSS.t73 sky130_fd_pr__nfet_g5v0d10v5 ad=0.145 pd=1.58 as=0.145 ps=1.58 w=0.5 l=0.5
X21 3_bit_dac_0[0].2_bit_dac_0[0].switch2n_3v3_0.R_H 3_bit_dac_0[0].2_bit_dac_0[0].switch2n_3v3_0.R_L VSS.t8 sky130_fd_pr__res_generic_nd__hv w=0.42 l=2.1
X22 3_bit_dac_0[0].2_bit_dac_0[0].switch2n_3v3_0.VREFH 3_bit_dac_0[0].2_bit_dac_0[0].switch2n_3v3_0.R_H VSS.t3 sky130_fd_pr__res_generic_nd__hv w=0.42 l=2.1
X23 3_bit_dac_0[0].2_bit_dac_0[0].D0 a_1556_1634# VCC.t28 VCC.t27 sky130_fd_pr__pfet_g5v0d10v5 ad=0.29 pd=2.58 as=0.29 ps=2.58 w=1 l=0.5
X24 3_bit_dac_0[1].2_bit_dac_0[0].D0 a_1556_4090# VCC.t53 VCC.t52 sky130_fd_pr__pfet_g5v0d10v5 ad=0.29 pd=2.58 as=0.29 ps=2.58 w=1 l=0.5
X25 3_bit_dac_0[0].2_bit_dac_0[1].switch2n_3v3_0.R_L 3_bit_dac_0[0].2_bit_dac_0[0].D0 3_bit_dac_0[0].2_bit_dac_0[1].switch2n_3v3_0.VOUTL VSS.t15 sky130_fd_pr__nfet_g5v0d10v5 ad=0.145 pd=1.58 as=0.145 ps=1.58 w=0.5 l=0.5
X26 3_bit_dac_0[0].2_bit_dac_0[0].switch2n_3v3_0.VOUTL a_1556_406# 3_bit_dac_0[0].2_bit_dac_0[0].switch2n_3v3_0.R_L VCC.t25 sky130_fd_pr__pfet_g5v0d10v5 ad=0.29 pd=2.58 as=0.29 ps=2.58 w=1 l=0.5
X27 3_bit_dac_0[1].2_bit_dac_0[0].switch2n_3v3_0.VOUTH a_1556_2862# 3_bit_dac_0[1].2_bit_dac_0[0].switch2n_3v3_0.R_H VSS.t33 sky130_fd_pr__nfet_g5v0d10v5 ad=0.145 pd=1.58 as=0.145 ps=1.58 w=0.5 l=0.5
X28 3_bit_dac_0[1].2_bit_dac_0[0].D0 a_1556_4090# VSS.t54 VSS.t53 sky130_fd_pr__nfet_g5v0d10v5 ad=0.145 pd=1.58 as=0.145 ps=1.58 w=0.5 l=0.5
X29 3_bit_dac_0[0].2_bit_dac_0[1].switch2n_3v3_0.R_H 3_bit_dac_0[0].2_bit_dac_0[1].switch2n_3v3_0.R_L VSS.t8 sky130_fd_pr__res_generic_nd__hv w=0.42 l=2.1
X30 3_bit_dac_0[1].2_bit_dac_0[0].VOUT 3_bit_dac_0[0].D1 3_bit_dac_0[1].2_bit_dac_0[0].switch2n_3v3_0.VOUTH VSS.t75 sky130_fd_pr__nfet_g5v0d10v5 ad=0.145 pd=1.58 as=0.145 ps=1.58 w=0.5 l=0.5
X31 3_bit_dac_0[1].2_bit_dac_0[1].switch2n_3v3_0.R_H 3_bit_dac_0[1].2_bit_dac_0[1].switch2n_3v3_0.R_L VSS.t8 sky130_fd_pr__res_generic_nd__hv w=0.42 l=2.1
X32 3_bit_dac_0[1].VOUT switch_n_3v3_0.DX_ VOUT.t1 VSS.t9 sky130_fd_pr__nfet_g5v0d10v5 ad=0.145 pd=1.58 as=0.145 ps=1.58 w=0.5 l=0.5
X33 switch_n_3v3_0.DX_ D3.t0 VSS.t45 VSS.t44 sky130_fd_pr__nfet_g5v0d10v5 ad=0.145 pd=1.58 as=0.145 ps=1.58 w=0.5 l=0.5
X34 D0_BUF.t0 a_1556_406# VSS.t25 VSS.t24 sky130_fd_pr__nfet_g5v0d10v5 ad=0.145 pd=1.58 as=0.145 ps=1.58 w=0.5 l=0.5
X35 a_1556_406# 3_bit_dac_0[0].2_bit_dac_0[0].D0 VSS.t14 VSS.t13 sky130_fd_pr__nfet_g5v0d10v5 ad=0.145 pd=1.58 as=0.145 ps=1.58 w=0.5 l=0.5
X36 3_bit_dac_0[1].2_bit_dac_0[1].VREFH 3_bit_dac_0[0].D0 3_bit_dac_0[1].2_bit_dac_0[0].switch2n_3v3_0.VOUTL VCC.t65 sky130_fd_pr__pfet_g5v0d10v5 ad=0.29 pd=2.58 as=0.29 ps=2.58 w=1 l=0.5
X37 3_bit_dac_0[1].2_bit_dac_0[1].switch2n_3v3_0.VOUTL 3_bit_dac_0[1].2_bit_dac_0[1].switch_n_3v3_v2_0.DX_ 3_bit_dac_0[1].2_bit_dac_0[1].VOUT VSS.t36 sky130_fd_pr__nfet_g5v0d10v5 ad=0.145 pd=1.58 as=0.145 ps=1.58 w=0.5 l=0.5
X38 3_bit_dac_0[1].2_bit_dac_0[1].switch_n_3v3_v2_0.DX_ D1.t0 VSS.t40 VSS.t39 sky130_fd_pr__nfet_g5v0d10v5 ad=0.145 pd=1.58 as=0.145 ps=1.58 w=0.5 l=0.5
X39 3_bit_dac_0[0].2_bit_dac_0[0].switch2n_3v3_0.R_L 3_bit_dac_0[0].2_bit_dac_0[1].VREFH VSS.t34 sky130_fd_pr__res_generic_nd__hv w=0.42 l=2.1
X40 3_bit_dac_0[0].2_bit_dac_0[0].D1 3_bit_dac_0[0].2_bit_dac_0[1].switch_n_3v3_v2_0.DX_ VCC.t58 VCC.t57 sky130_fd_pr__pfet_g5v0d10v5 ad=0.29 pd=2.58 as=0.29 ps=2.58 w=1 l=0.5
X41 3_bit_dac_0[1].2_bit_dac_0[0].D1 3_bit_dac_0[1].2_bit_dac_0[1].switch_n_3v3_v2_0.DX_ VCC.t37 VCC.t36 sky130_fd_pr__pfet_g5v0d10v5 ad=0.29 pd=2.58 as=0.29 ps=2.58 w=1 l=0.5
X42 3_bit_dac_0[0].2_bit_dac_0[1].VOUT 3_bit_dac_0[0].2_bit_dac_0[0].D1 3_bit_dac_0[0].2_bit_dac_0[1].switch2n_3v3_0.VOUTL VCC.t70 sky130_fd_pr__pfet_g5v0d10v5 ad=0.29 pd=2.58 as=0.29 ps=2.58 w=1 l=0.5
X43 3_bit_dac_0[1].2_bit_dac_0[1].VOUT 3_bit_dac_0[1].2_bit_dac_0[0].D1 3_bit_dac_0[1].2_bit_dac_0[1].switch2n_3v3_0.VOUTL VCC.t17 sky130_fd_pr__pfet_g5v0d10v5 ad=0.29 pd=2.58 as=0.29 ps=2.58 w=1 l=0.5
X44 3_bit_dac_0[1].VOUT switch_n_3v3_0.D2 3_bit_dac_0[1].2_bit_dac_0[0].VOUT VSS.t18 sky130_fd_pr__nfet_g5v0d10v5 ad=0.145 pd=1.58 as=0.145 ps=1.58 w=0.5 l=0.5
X45 D2_BUF.t0 3_bit_dac_0[0].switch_n_3v3_1.DX_ VSS.t63 VSS.t62 sky130_fd_pr__nfet_g5v0d10v5 ad=0.145 pd=1.58 as=0.145 ps=1.58 w=0.5 l=0.5
X46 3_bit_dac_0[0].2_bit_dac_0[0].VOUT 3_bit_dac_0[0].switch_n_3v3_1.DX_ 3_bit_dac_0[0].VOUT VCC.t61 sky130_fd_pr__pfet_g5v0d10v5 ad=0.29 pd=2.58 as=0.29 ps=2.58 w=1 l=0.5
X47 3_bit_dac_0[0].2_bit_dac_0[1].switch2n_3v3_0.VREFH 3_bit_dac_0[0].2_bit_dac_0[1].VREFH VSS.t35 sky130_fd_pr__res_generic_nd__hv w=0.42 l=2.1
X48 3_bit_dac_0[1].2_bit_dac_0[0].VOUT 3_bit_dac_0[1].switch_n_3v3_1.DX_ 3_bit_dac_0[1].VOUT VCC.t2 sky130_fd_pr__pfet_g5v0d10v5 ad=0.29 pd=2.58 as=0.29 ps=2.58 w=1 l=0.5
X49 3_bit_dac_0[0].2_bit_dac_0[0].VOUT D1_BUF.t2 3_bit_dac_0[0].2_bit_dac_0[0].switch2n_3v3_0.VOUTL VCC.t43 sky130_fd_pr__pfet_g5v0d10v5 ad=0.29 pd=2.58 as=0.29 ps=2.58 w=1 l=0.5
X50 3_bit_dac_0[0].2_bit_dac_0[1].switch2n_3v3_0.R_H 3_bit_dac_0[0].2_bit_dac_0[0].D0 3_bit_dac_0[0].2_bit_dac_0[1].switch2n_3v3_0.VOUTH VCC.t13 sky130_fd_pr__pfet_g5v0d10v5 ad=0.29 pd=2.58 as=0.29 ps=2.58 w=1 l=0.5
X51 a_1556_2862# 3_bit_dac_0[1].2_bit_dac_0[0].D0 VSS.t7 VSS.t6 sky130_fd_pr__nfet_g5v0d10v5 ad=0.145 pd=1.58 as=0.145 ps=1.58 w=0.5 l=0.5
X52 3_bit_dac_0[1].2_bit_dac_0[1].switch2n_3v3_0.R_H 3_bit_dac_0[1].2_bit_dac_0[0].D0 3_bit_dac_0[1].2_bit_dac_0[1].switch2n_3v3_0.VOUTH VCC.t6 sky130_fd_pr__pfet_g5v0d10v5 ad=0.29 pd=2.58 as=0.29 ps=2.58 w=1 l=0.5
X53 3_bit_dac_0[1].2_bit_dac_0[0].switch2n_3v3_0.VOUTH 3_bit_dac_0[1].2_bit_dac_0[0].switch_n_3v3_v2_0.DX_ 3_bit_dac_0[1].2_bit_dac_0[0].VOUT VCC.t46 sky130_fd_pr__pfet_g5v0d10v5 ad=0.29 pd=2.58 as=0.29 ps=2.58 w=1 l=0.5
X54 3_bit_dac_0[1].2_bit_dac_0[0].switch2n_3v3_0.VREFH 3_bit_dac_0[1].2_bit_dac_0[0].switch2n_3v3_0.R_H VSS.t3 sky130_fd_pr__res_generic_nd__hv w=0.42 l=2.1
X55 3_bit_dac_0[0].2_bit_dac_0[0].switch2n_3v3_0.VOUTH a_1556_406# 3_bit_dac_0[0].2_bit_dac_0[0].switch2n_3v3_0.VREFH VCC.t24 sky130_fd_pr__pfet_g5v0d10v5 ad=0.29 pd=2.58 as=0.29 ps=2.58 w=1 l=0.5
X56 D3_BUF.t1 switch_n_3v3_0.DX_ VCC.t9 VCC.t8 sky130_fd_pr__pfet_g5v0d10v5 ad=0.29 pd=2.58 as=0.29 ps=2.58 w=1 l=0.5
X57 3_bit_dac_0[0].2_bit_dac_0[1].switch2n_3v3_0.VOUTL a_1556_1634# 3_bit_dac_0[0].2_bit_dac_0[1].switch2n_3v3_0.R_L VCC.t26 sky130_fd_pr__pfet_g5v0d10v5 ad=0.29 pd=2.58 as=0.29 ps=2.58 w=1 l=0.5
X58 3_bit_dac_0[1].2_bit_dac_0[1].switch2n_3v3_0.VOUTL a_1556_4090# 3_bit_dac_0[1].2_bit_dac_0[1].switch2n_3v3_0.R_L VCC.t51 sky130_fd_pr__pfet_g5v0d10v5 ad=0.29 pd=2.58 as=0.29 ps=2.58 w=1 l=0.5
X59 3_bit_dac_0[1].2_bit_dac_0[1].switch2n_3v3_0.VREFH 3_bit_dac_0[1].2_bit_dac_0[0].D0 3_bit_dac_0[1].2_bit_dac_0[1].switch2n_3v3_0.VOUTH VSS.t5 sky130_fd_pr__nfet_g5v0d10v5 ad=0.145 pd=1.58 as=0.145 ps=1.58 w=0.5 l=0.5
X60 D1_BUF.t0 3_bit_dac_0[0].2_bit_dac_0[0].switch_n_3v3_v2_0.DX_ VSS.t47 VSS.t46 sky130_fd_pr__nfet_g5v0d10v5 ad=0.145 pd=1.58 as=0.145 ps=1.58 w=0.5 l=0.5
X61 3_bit_dac_0[0].2_bit_dac_0[0].switch2n_3v3_0.R_L D0_BUF.t3 3_bit_dac_0[0].2_bit_dac_0[0].switch2n_3v3_0.VOUTL VSS.t65 sky130_fd_pr__nfet_g5v0d10v5 ad=0.145 pd=1.58 as=0.145 ps=1.58 w=0.5 l=0.5
X62 VOUT.t3 D3_BUF.t2 3_bit_dac_0[1].VOUT VCC.t30 sky130_fd_pr__pfet_g5v0d10v5 ad=0.29 pd=2.58 as=0.29 ps=2.58 w=1 l=0.5
X63 3_bit_dac_0[0].2_bit_dac_0[0].switch2n_3v3_0.VREFH D0_BUF.t4 3_bit_dac_0[0].2_bit_dac_0[0].switch2n_3v3_0.VOUTH VSS.t64 sky130_fd_pr__nfet_g5v0d10v5 ad=0.145 pd=1.58 as=0.145 ps=1.58 w=0.5 l=0.5
X64 3_bit_dac_0[1].2_bit_dac_0[1].switch2n_3v3_0.VOUTL a_1556_4090# VREFL.t2 VSS.t52 sky130_fd_pr__nfet_g5v0d10v5 ad=0.145 pd=1.58 as=0.145 ps=1.58 w=0.5 l=0.5
X65 3_bit_dac_0[0].D0 a_1556_2862# VSS.t32 VSS.t31 sky130_fd_pr__nfet_g5v0d10v5 ad=0.145 pd=1.58 as=0.145 ps=1.58 w=0.5 l=0.5
X66 3_bit_dac_0[0].2_bit_dac_0[1].switch2n_3v3_0.VOUTH a_1556_1634# 3_bit_dac_0[0].2_bit_dac_0[1].switch2n_3v3_0.R_H VSS.t29 sky130_fd_pr__nfet_g5v0d10v5 ad=0.145 pd=1.58 as=0.145 ps=1.58 w=0.5 l=0.5
X67 3_bit_dac_0[0].2_bit_dac_0[0].switch2n_3v3_0.VREFH VREFH.t0 VSS.t35 sky130_fd_pr__res_generic_nd__hv w=0.42 l=2.1
X68 3_bit_dac_0[0].2_bit_dac_0[1].switch2n_3v3_0.R_L 3_bit_dac_0[1].VREFH VSS.t34 sky130_fd_pr__res_generic_nd__hv w=0.42 l=2.1
X69 3_bit_dac_0[1].2_bit_dac_0[1].switch2n_3v3_0.R_L VREFL.t1 VSS.t34 sky130_fd_pr__res_generic_nd__hv w=0.42 l=2.1
X70 3_bit_dac_0[0].2_bit_dac_0[1].switch_n_3v3_v2_0.DX_ 3_bit_dac_0[0].D1 VCC.t73 VCC.t72 sky130_fd_pr__pfet_g5v0d10v5 ad=0.29 pd=2.58 as=0.29 ps=2.58 w=1 l=0.5
X71 3_bit_dac_0[1].2_bit_dac_0[1].switch_n_3v3_v2_0.DX_ D1.t1 VCC.t48 VCC.t47 sky130_fd_pr__pfet_g5v0d10v5 ad=0.29 pd=2.58 as=0.29 ps=2.58 w=1 l=0.5
X72 3_bit_dac_0[0].2_bit_dac_0[1].VOUT 3_bit_dac_0[0].2_bit_dac_0[0].D1 3_bit_dac_0[0].2_bit_dac_0[1].switch2n_3v3_0.VOUTH VSS.t72 sky130_fd_pr__nfet_g5v0d10v5 ad=0.145 pd=1.58 as=0.145 ps=1.58 w=0.5 l=0.5
X73 3_bit_dac_0[0].2_bit_dac_0[1].VOUT 3_bit_dac_0[0].switch_n_3v3_1.DX_ 3_bit_dac_0[0].VOUT VSS.t61 sky130_fd_pr__nfet_g5v0d10v5 ad=0.145 pd=1.58 as=0.145 ps=1.58 w=0.5 l=0.5
X74 3_bit_dac_0[0].switch_n_3v3_1.DX_ switch_n_3v3_0.D2 VSS.t17 VSS.t16 sky130_fd_pr__nfet_g5v0d10v5 ad=0.145 pd=1.58 as=0.145 ps=1.58 w=0.5 l=0.5
X75 3_bit_dac_0[0].2_bit_dac_0[0].VOUT D1_BUF.t3 3_bit_dac_0[0].2_bit_dac_0[0].switch2n_3v3_0.VOUTH VSS.t57 sky130_fd_pr__nfet_g5v0d10v5 ad=0.145 pd=1.58 as=0.145 ps=1.58 w=0.5 l=0.5
X76 3_bit_dac_0[1].2_bit_dac_0[0].switch2n_3v3_0.VOUTH a_1556_2862# 3_bit_dac_0[1].2_bit_dac_0[0].switch2n_3v3_0.VREFH VCC.t33 sky130_fd_pr__pfet_g5v0d10v5 ad=0.29 pd=2.58 as=0.29 ps=2.58 w=1 l=0.5
X77 3_bit_dac_0[0].D1 3_bit_dac_0[1].2_bit_dac_0[0].switch_n_3v3_v2_0.DX_ VSS.t51 VSS.t50 sky130_fd_pr__nfet_g5v0d10v5 ad=0.145 pd=1.58 as=0.145 ps=1.58 w=0.5 l=0.5
X78 switch_n_3v3_0.DX_ D3.t1 VCC.t50 VCC.t49 sky130_fd_pr__pfet_g5v0d10v5 ad=0.29 pd=2.58 as=0.29 ps=2.58 w=1 l=0.5
X79 a_1556_1634# 3_bit_dac_0[0].D0 VSS.t68 VSS.t67 sky130_fd_pr__nfet_g5v0d10v5 ad=0.145 pd=1.58 as=0.145 ps=1.58 w=0.5 l=0.5
X80 3_bit_dac_0[1].2_bit_dac_0[0].switch2n_3v3_0.VREFH 3_bit_dac_0[0].D0 3_bit_dac_0[1].2_bit_dac_0[0].switch2n_3v3_0.VOUTH VSS.t66 sky130_fd_pr__nfet_g5v0d10v5 ad=0.145 pd=1.58 as=0.145 ps=1.58 w=0.5 l=0.5
X81 3_bit_dac_0[0].2_bit_dac_0[1].switch2n_3v3_0.VREFH 3_bit_dac_0[0].2_bit_dac_0[1].switch2n_3v3_0.R_H VSS.t3 sky130_fd_pr__res_generic_nd__hv w=0.42 l=2.1
X82 3_bit_dac_0[1].2_bit_dac_0[1].switch2n_3v3_0.VREFH 3_bit_dac_0[1].2_bit_dac_0[1].VREFH VSS.t35 sky130_fd_pr__res_generic_nd__hv w=0.42 l=2.1
X83 3_bit_dac_0[1].2_bit_dac_0[0].switch2n_3v3_0.VOUTL a_1556_2862# 3_bit_dac_0[1].2_bit_dac_0[1].VREFH VSS.t30 sky130_fd_pr__nfet_g5v0d10v5 ad=0.145 pd=1.58 as=0.145 ps=1.58 w=0.5 l=0.5
X84 switch_n_3v3_0.D2 3_bit_dac_0[1].switch_n_3v3_1.DX_ VSS.t2 VSS.t1 sky130_fd_pr__nfet_g5v0d10v5 ad=0.145 pd=1.58 as=0.145 ps=1.58 w=0.5 l=0.5
X85 3_bit_dac_0[0].2_bit_dac_0[0].switch_n_3v3_v2_0.DX_ 3_bit_dac_0[0].2_bit_dac_0[0].D1 VCC.t69 VCC.t68 sky130_fd_pr__pfet_g5v0d10v5 ad=0.29 pd=2.58 as=0.29 ps=2.58 w=1 l=0.5
X86 a_1556_2862# 3_bit_dac_0[1].2_bit_dac_0[0].D0 VCC.t5 VCC.t4 sky130_fd_pr__pfet_g5v0d10v5 ad=0.29 pd=2.58 as=0.29 ps=2.58 w=1 l=0.5
X87 3_bit_dac_0[1].2_bit_dac_0[0].switch2n_3v3_0.R_H 3_bit_dac_0[1].2_bit_dac_0[0].switch2n_3v3_0.R_L VSS.t8 sky130_fd_pr__res_generic_nd__hv w=0.42 l=2.1
X88 3_bit_dac_0[0].2_bit_dac_0[0].D0 a_1556_1634# VSS.t28 VSS.t27 sky130_fd_pr__nfet_g5v0d10v5 ad=0.145 pd=1.58 as=0.145 ps=1.58 w=0.5 l=0.5
X89 3_bit_dac_0[0].2_bit_dac_0[0].switch2n_3v3_0.VOUTL a_1556_406# 3_bit_dac_0[0].2_bit_dac_0[1].VREFH VSS.t23 sky130_fd_pr__nfet_g5v0d10v5 ad=0.145 pd=1.58 as=0.145 ps=1.58 w=0.5 l=0.5
X90 3_bit_dac_0[1].VREFH 3_bit_dac_0[0].2_bit_dac_0[0].D0 3_bit_dac_0[0].2_bit_dac_0[1].switch2n_3v3_0.VOUTL VCC.t12 sky130_fd_pr__pfet_g5v0d10v5 ad=0.29 pd=2.58 as=0.29 ps=2.58 w=1 l=0.5
X91 VREFL.t0 3_bit_dac_0[1].2_bit_dac_0[0].D0 3_bit_dac_0[1].2_bit_dac_0[1].switch2n_3v3_0.VOUTL VCC.t3 sky130_fd_pr__pfet_g5v0d10v5 ad=0.29 pd=2.58 as=0.29 ps=2.58 w=1 l=0.5
X92 3_bit_dac_0[1].2_bit_dac_0[0].switch2n_3v3_0.VOUTL 3_bit_dac_0[1].2_bit_dac_0[0].switch_n_3v3_v2_0.DX_ 3_bit_dac_0[1].2_bit_dac_0[0].VOUT VSS.t49 sky130_fd_pr__nfet_g5v0d10v5 ad=0.145 pd=1.58 as=0.145 ps=1.58 w=0.5 l=0.5
X93 3_bit_dac_0[1].2_bit_dac_0[0].switch_n_3v3_v2_0.DX_ 3_bit_dac_0[1].2_bit_dac_0[0].D1 VSS.t21 VSS.t20 sky130_fd_pr__nfet_g5v0d10v5 ad=0.145 pd=1.58 as=0.145 ps=1.58 w=0.5 l=0.5
X94 3_bit_dac_0[1].2_bit_dac_0[1].switch2n_3v3_0.R_L 3_bit_dac_0[1].2_bit_dac_0[0].D0 3_bit_dac_0[1].2_bit_dac_0[1].switch2n_3v3_0.VOUTL VSS.t4 sky130_fd_pr__nfet_g5v0d10v5 ad=0.145 pd=1.58 as=0.145 ps=1.58 w=0.5 l=0.5
X95 3_bit_dac_0[0].D0 a_1556_2862# VCC.t32 VCC.t31 sky130_fd_pr__pfet_g5v0d10v5 ad=0.29 pd=2.58 as=0.29 ps=2.58 w=1 l=0.5
X96 D0_BUF.t1 a_1556_406# VCC.t23 VCC.t22 sky130_fd_pr__pfet_g5v0d10v5 ad=0.29 pd=2.58 as=0.29 ps=2.58 w=1 l=0.5
X97 a_1556_406# 3_bit_dac_0[0].2_bit_dac_0[0].D0 VCC.t11 VCC.t10 sky130_fd_pr__pfet_g5v0d10v5 ad=0.29 pd=2.58 as=0.29 ps=2.58 w=1 l=0.5
X98 VOUT.t2 D3_BUF.t3 3_bit_dac_0[0].VOUT VSS.t56 sky130_fd_pr__nfet_g5v0d10v5 ad=0.145 pd=1.58 as=0.145 ps=1.58 w=0.5 l=0.5
X99 3_bit_dac_0[0].2_bit_dac_0[0].D1 3_bit_dac_0[0].2_bit_dac_0[1].switch_n_3v3_v2_0.DX_ VSS.t59 VSS.t58 sky130_fd_pr__nfet_g5v0d10v5 ad=0.145 pd=1.58 as=0.145 ps=1.58 w=0.5 l=0.5
X100 3_bit_dac_0[0].2_bit_dac_0[1].switch2n_3v3_0.VOUTH 3_bit_dac_0[0].2_bit_dac_0[1].switch_n_3v3_v2_0.DX_ 3_bit_dac_0[0].2_bit_dac_0[1].VOUT VCC.t56 sky130_fd_pr__pfet_g5v0d10v5 ad=0.29 pd=2.58 as=0.29 ps=2.58 w=1 l=0.5
X101 3_bit_dac_0[1].2_bit_dac_0[1].VOUT 3_bit_dac_0[1].2_bit_dac_0[0].D1 3_bit_dac_0[1].2_bit_dac_0[1].switch2n_3v3_0.VOUTH VSS.t19 sky130_fd_pr__nfet_g5v0d10v5 ad=0.145 pd=1.58 as=0.145 ps=1.58 w=0.5 l=0.5
X102 3_bit_dac_0[1].2_bit_dac_0[1].switch2n_3v3_0.VOUTH 3_bit_dac_0[1].2_bit_dac_0[1].switch_n_3v3_v2_0.DX_ 3_bit_dac_0[1].2_bit_dac_0[1].VOUT VCC.t35 sky130_fd_pr__pfet_g5v0d10v5 ad=0.29 pd=2.58 as=0.29 ps=2.58 w=1 l=0.5
X103 3_bit_dac_0[1].2_bit_dac_0[1].VOUT 3_bit_dac_0[1].switch_n_3v3_1.DX_ 3_bit_dac_0[1].VOUT VSS.t0 sky130_fd_pr__nfet_g5v0d10v5 ad=0.145 pd=1.58 as=0.145 ps=1.58 w=0.5 l=0.5
X104 3_bit_dac_0[1].switch_n_3v3_1.DX_ D2.t1 VSS.t71 VSS.t70 sky130_fd_pr__nfet_g5v0d10v5 ad=0.145 pd=1.58 as=0.145 ps=1.58 w=0.5 l=0.5
X105 3_bit_dac_0[0].2_bit_dac_0[0].switch2n_3v3_0.VOUTH 3_bit_dac_0[0].2_bit_dac_0[0].switch_n_3v3_v2_0.DX_ 3_bit_dac_0[0].2_bit_dac_0[0].VOUT VCC.t42 sky130_fd_pr__pfet_g5v0d10v5 ad=0.29 pd=2.58 as=0.29 ps=2.58 w=1 l=0.5
X106 D2_BUF.t1 3_bit_dac_0[0].switch_n_3v3_1.DX_ VCC.t60 VCC.t59 sky130_fd_pr__pfet_g5v0d10v5 ad=0.29 pd=2.58 as=0.29 ps=2.58 w=1 l=0.5
X107 switch_n_3v3_0.D2 3_bit_dac_0[1].switch_n_3v3_1.DX_ VCC.t1 VCC.t0 sky130_fd_pr__pfet_g5v0d10v5 ad=0.29 pd=2.58 as=0.29 ps=2.58 w=1 l=0.5
X108 3_bit_dac_0[0].VOUT D2_BUF.t3 3_bit_dac_0[0].2_bit_dac_0[1].VOUT VCC.t55 sky130_fd_pr__pfet_g5v0d10v5 ad=0.29 pd=2.58 as=0.29 ps=2.58 w=1 l=0.5
X109 3_bit_dac_0[1].VOUT switch_n_3v3_0.D2 3_bit_dac_0[1].2_bit_dac_0[1].VOUT VCC.t14 sky130_fd_pr__pfet_g5v0d10v5 ad=0.29 pd=2.58 as=0.29 ps=2.58 w=1 l=0.5
X110 3_bit_dac_0[0].2_bit_dac_0[1].switch2n_3v3_0.VREFH 3_bit_dac_0[0].2_bit_dac_0[0].D0 3_bit_dac_0[0].2_bit_dac_0[1].switch2n_3v3_0.VOUTH VSS.t12 sky130_fd_pr__nfet_g5v0d10v5 ad=0.145 pd=1.58 as=0.145 ps=1.58 w=0.5 l=0.5
X111 3_bit_dac_0[0].D1 3_bit_dac_0[1].2_bit_dac_0[0].switch_n_3v3_v2_0.DX_ VCC.t45 VCC.t44 sky130_fd_pr__pfet_g5v0d10v5 ad=0.29 pd=2.58 as=0.29 ps=2.58 w=1 l=0.5
X112 3_bit_dac_0[0].2_bit_dac_0[0].switch2n_3v3_0.VOUTH a_1556_406# 3_bit_dac_0[0].2_bit_dac_0[0].switch2n_3v3_0.R_H VSS.t22 sky130_fd_pr__nfet_g5v0d10v5 ad=0.145 pd=1.58 as=0.145 ps=1.58 w=0.5 l=0.5
X113 3_bit_dac_0[1].2_bit_dac_0[0].VOUT 3_bit_dac_0[0].D1 3_bit_dac_0[1].2_bit_dac_0[0].switch2n_3v3_0.VOUTL VCC.t71 sky130_fd_pr__pfet_g5v0d10v5 ad=0.29 pd=2.58 as=0.29 ps=2.58 w=1 l=0.5
X114 3_bit_dac_0[0].2_bit_dac_0[1].switch2n_3v3_0.VOUTL a_1556_1634# 3_bit_dac_0[1].VREFH VSS.t26 sky130_fd_pr__nfet_g5v0d10v5 ad=0.145 pd=1.58 as=0.145 ps=1.58 w=0.5 l=0.5
X115 3_bit_dac_0[0].VOUT switch_n_3v3_0.DX_ VOUT.t0 VCC.t7 sky130_fd_pr__pfet_g5v0d10v5 ad=0.29 pd=2.58 as=0.29 ps=2.58 w=1 l=0.5
X116 D1_BUF.t1 3_bit_dac_0[0].2_bit_dac_0[0].switch_n_3v3_v2_0.DX_ VCC.t41 VCC.t40 sky130_fd_pr__pfet_g5v0d10v5 ad=0.29 pd=2.58 as=0.29 ps=2.58 w=1 l=0.5
X117 3_bit_dac_0[0].2_bit_dac_0[1].VREFH D0_BUF.t5 3_bit_dac_0[0].2_bit_dac_0[0].switch2n_3v3_0.VOUTL VCC.t62 sky130_fd_pr__pfet_g5v0d10v5 ad=0.29 pd=2.58 as=0.29 ps=2.58 w=1 l=0.5
X118 3_bit_dac_0[1].2_bit_dac_0[1].switch2n_3v3_0.VREFH 3_bit_dac_0[1].2_bit_dac_0[1].switch2n_3v3_0.R_H VSS.t3 sky130_fd_pr__res_generic_nd__hv w=0.42 l=2.1
X119 3_bit_dac_0[1].2_bit_dac_0[0].switch2n_3v3_0.R_H 3_bit_dac_0[0].D0 3_bit_dac_0[1].2_bit_dac_0[0].switch2n_3v3_0.VOUTH VCC.t64 sky130_fd_pr__pfet_g5v0d10v5 ad=0.29 pd=2.58 as=0.29 ps=2.58 w=1 l=0.5
C0 VREFL 3_bit_dac_0[0].D0 4.97e-19
C1 3_bit_dac_0[1].2_bit_dac_0[1].switch2n_3v3_0.VREFH 3_bit_dac_0[1].2_bit_dac_0[1].VREFH 0.0124f
C2 3_bit_dac_0[1].2_bit_dac_0[0].switch2n_3v3_0.VREFH 3_bit_dac_0[1].2_bit_dac_0[0].switch2n_3v3_0.R_H 1.39f
C3 3_bit_dac_0[0].2_bit_dac_0[0].switch2n_3v3_0.VREFH 3_bit_dac_0[0].D0 1.9e-19
C4 3_bit_dac_0[0].2_bit_dac_0[0].switch2n_3v3_0.R_L 3_bit_dac_0[0].2_bit_dac_0[0].D0 0.265f
C5 3_bit_dac_0[1].2_bit_dac_0[0].switch2n_3v3_0.VOUTH 3_bit_dac_0[0].D1 0.176f
C6 D1 VCC 0.459f
C7 3_bit_dac_0[0].2_bit_dac_0[1].switch2n_3v3_0.R_H 3_bit_dac_0[0].2_bit_dac_0[1].switch_n_3v3_v2_0.DX_ 0.00819f
C8 3_bit_dac_0[1].2_bit_dac_0[0].switch2n_3v3_0.VOUTL 3_bit_dac_0[1].2_bit_dac_0[1].switch_n_3v3_v2_0.DX_ 0.0172f
C9 3_bit_dac_0[1].2_bit_dac_0[1].switch2n_3v3_0.VOUTH 3_bit_dac_0[1].2_bit_dac_0[0].switch_n_3v3_v2_0.DX_ 1.46e-19
C10 switch_n_3v3_0.D7 3_bit_dac_0[0].2_bit_dac_0[1].switch2n_3v3_0.VOUTH 4.71e-19
C11 D0_BUF 3_bit_dac_0[0].2_bit_dac_0[0].D1 0.0179f
C12 3_bit_dac_0[1].2_bit_dac_0[1].switch2n_3v3_0.VREFH 3_bit_dac_0[1].2_bit_dac_0[1].switch2n_3v3_0.R_L 0.0923f
C13 3_bit_dac_0[1].2_bit_dac_0[1].VREFH 3_bit_dac_0[1].2_bit_dac_0[1].switch2n_3v3_0.R_H 0.0579f
C14 switch_n_3v3_0.DX_ VCC 0.712f
C15 3_bit_dac_0[0].2_bit_dac_0[0].VOUT 3_bit_dac_0[0].2_bit_dac_0[0].D1 0.00692f
C16 3_bit_dac_0[0].switch_n_3v3_1.DX_ 3_bit_dac_0[1].VOUT 3.68e-19
C17 3_bit_dac_0[1].2_bit_dac_0[1].switch2n_3v3_0.VOUTL 3_bit_dac_0[1].2_bit_dac_0[0].switch2n_3v3_0.VREFH 0.0102f
C18 3_bit_dac_0[0].D0 3_bit_dac_0[1].2_bit_dac_0[0].switch2n_3v3_0.VREFH 0.472f
C19 3_bit_dac_0[1].2_bit_dac_0[1].switch_n_3v3_v2_0.DX_ 3_bit_dac_0[1].2_bit_dac_0[0].D1 0.219f
C20 3_bit_dac_0[1].2_bit_dac_0[0].switch2n_3v3_0.VOUTH 3_bit_dac_0[1].2_bit_dac_0[0].switch2n_3v3_0.R_L 0.0018f
C21 3_bit_dac_0[0].2_bit_dac_0[0].switch2n_3v3_0.R_H 3_bit_dac_0[0].2_bit_dac_0[1].switch2n_3v3_0.R_H 0.0261f
C22 3_bit_dac_0[1].switch_n_3v3_1.DX_ 3_bit_dac_0[1].2_bit_dac_0[1].VOUT 0.125f
C23 VOUT switch_n_3v3_0.D6 2.29e-20
C24 3_bit_dac_0[1].2_bit_dac_0[1].switch2n_3v3_0.R_H 3_bit_dac_0[1].2_bit_dac_0[1].switch2n_3v3_0.R_L 0.805f
C25 VCC 3_bit_dac_0[1].2_bit_dac_0[1].switch2n_3v3_0.VREFH 0.836f
C26 3_bit_dac_0[0].D1 switch_n_3v3_0.D6 1.79e-20
C27 3_bit_dac_0[0].2_bit_dac_0[0].switch2n_3v3_0.R_L 3_bit_dac_0[0].2_bit_dac_0[1].VREFH 0.482f
C28 3_bit_dac_0[1].2_bit_dac_0[0].switch2n_3v3_0.VOUTL 3_bit_dac_0[0].2_bit_dac_0[0].D0 0.00349f
C29 a_1556_4090# D0 0.0975f
C30 3_bit_dac_0[0].2_bit_dac_0[0].switch2n_3v3_0.VREFH a_1556_406# 0.175f
C31 VCC 3_bit_dac_0[1].2_bit_dac_0[1].switch2n_3v3_0.R_H 0.312f
C32 switch_n_3v3_0.D2 3_bit_dac_0[1].VOUT 0.0744f
C33 3_bit_dac_0[0].2_bit_dac_0[0].VOUT D0_BUF 2.29e-20
C34 3_bit_dac_0[0].2_bit_dac_0[1].switch2n_3v3_0.VREFH 3_bit_dac_0[0].2_bit_dac_0[1].switch2n_3v3_0.VOUTH 0.236f
C35 D1_BUF 3_bit_dac_0[0].2_bit_dac_0[0].switch2n_3v3_0.VOUTH 0.176f
C36 3_bit_dac_0[1].2_bit_dac_0[0].switch_n_3v3_v2_0.DX_ 3_bit_dac_0[0].2_bit_dac_0[1].switch2n_3v3_0.VOUTL 0.0172f
C37 3_bit_dac_0[1].2_bit_dac_0[1].switch_n_3v3_v2_0.DX_ 3_bit_dac_0[1].2_bit_dac_0[0].VOUT 0.0035f
C38 D1_BUF 3_bit_dac_0[0].2_bit_dac_0[1].switch2n_3v3_0.VOUTL 4.15e-19
C39 3_bit_dac_0[1].switch_n_3v3_1.DX_ switch_n_3v3_0.D4 1.33e-19
C40 3_bit_dac_0[1].2_bit_dac_0[1].switch2n_3v3_0.VOUTH 3_bit_dac_0[1].2_bit_dac_0[0].switch2n_3v3_0.R_H 1.68e-19
C41 3_bit_dac_0[0].2_bit_dac_0[1].switch_n_3v3_v2_0.DX_ switch_n_3v3_0.D4 2.51e-19
C42 D3 3_bit_dac_0[1].VOUT 2.78e-19
C43 3_bit_dac_0[0].2_bit_dac_0[1].switch_n_3v3_v2_0.DX_ 3_bit_dac_0[0].2_bit_dac_0[1].switch2n_3v3_0.VOUTH 0.0927f
C44 3_bit_dac_0[1].2_bit_dac_0[0].switch2n_3v3_0.VOUTH 3_bit_dac_0[0].2_bit_dac_0[0].D1 1.85e-19
C45 3_bit_dac_0[1].2_bit_dac_0[1].switch_n_3v3_v2_0.DX_ 3_bit_dac_0[1].2_bit_dac_0[1].switch2n_3v3_0.R_L 4.25e-19
C46 3_bit_dac_0[1].2_bit_dac_0[1].switch2n_3v3_0.VOUTL 3_bit_dac_0[1].2_bit_dac_0[1].switch2n_3v3_0.VOUTH 0.579f
C47 3_bit_dac_0[0].2_bit_dac_0[0].switch2n_3v3_0.R_H 3_bit_dac_0[0].2_bit_dac_0[1].switch2n_3v3_0.VOUTH 1.68e-19
C48 3_bit_dac_0[1].2_bit_dac_0[1].switch2n_3v3_0.VOUTH 3_bit_dac_0[0].D0 0.00164f
C49 D2_BUF 3_bit_dac_0[0].2_bit_dac_0[1].VOUT 0.177f
C50 3_bit_dac_0[1].2_bit_dac_0[0].switch_n_3v3_v2_0.DX_ 3_bit_dac_0[1].2_bit_dac_0[0].switch2n_3v3_0.R_H 0.00819f
C51 a_1556_4090# D1 0.003f
C52 3_bit_dac_0[0].2_bit_dac_0[0].D0 3_bit_dac_0[1].2_bit_dac_0[1].VREFH 4.97e-19
C53 3_bit_dac_0[0].2_bit_dac_0[0].switch2n_3v3_0.VOUTL 3_bit_dac_0[0].2_bit_dac_0[1].switch2n_3v3_0.VOUTH 0.00163f
C54 3_bit_dac_0[0].2_bit_dac_0[0].switch2n_3v3_0.VOUTH 3_bit_dac_0[0].2_bit_dac_0[1].switch2n_3v3_0.VOUTL 0.511f
C55 3_bit_dac_0[0].2_bit_dac_0[0].D0 3_bit_dac_0[0].2_bit_dac_0[1].VOUT 2.29e-20
C56 D3_BUF D2_BUF 0.307f
C57 switch_n_3v3_0.D2 3_bit_dac_0[1].2_bit_dac_0[0].switch2n_3v3_0.VOUTL 0.129f
C58 switch_n_3v3_0.D5 3_bit_dac_0[1].VOUT 3.23e-20
C59 3_bit_dac_0[1].2_bit_dac_0[1].switch_n_3v3_v2_0.DX_ VCC 0.714f
C60 3_bit_dac_0[1].2_bit_dac_0[1].switch2n_3v3_0.VOUTL 3_bit_dac_0[1].2_bit_dac_0[0].switch_n_3v3_v2_0.DX_ 7.75e-19
C61 3_bit_dac_0[0].2_bit_dac_0[0].switch2n_3v3_0.VREFH 3_bit_dac_0[0].2_bit_dac_0[1].switch2n_3v3_0.VREFH 3.82e-19
C62 switch_n_3v3_0.D6 3_bit_dac_0[0].2_bit_dac_0[0].D1 1.79e-20
C63 3_bit_dac_0[0].2_bit_dac_0[0].switch_n_3v3_v2_0.DX_ 3_bit_dac_0[0].2_bit_dac_0[0].D1 0.111f
C64 3_bit_dac_0[1].2_bit_dac_0[1].VOUT D1 0.0057f
C65 3_bit_dac_0[0].D0 3_bit_dac_0[1].2_bit_dac_0[0].switch_n_3v3_v2_0.DX_ 5.84e-19
C66 switch_n_3v3_0.D2 3_bit_dac_0[1].2_bit_dac_0[0].D1 0.0155f
C67 3_bit_dac_0[1].2_bit_dac_0[1].VOUT switch_n_3v3_0.DX_ 3.68e-19
C68 3_bit_dac_0[0].VOUT 3_bit_dac_0[1].2_bit_dac_0[0].switch_n_3v3_v2_0.DX_ 2.49e-22
C69 a_1556_4090# 3_bit_dac_0[1].2_bit_dac_0[1].switch2n_3v3_0.VREFH 0.175f
C70 3_bit_dac_0[0].switch_n_3v3_1.DX_ 3_bit_dac_0[0].2_bit_dac_0[1].VOUT 0.125f
C71 3_bit_dac_0[1].2_bit_dac_0[0].switch2n_3v3_0.VOUTL D3 0.017f
C72 3_bit_dac_0[0].2_bit_dac_0[1].switch2n_3v3_0.VREFH 3_bit_dac_0[1].2_bit_dac_0[0].switch2n_3v3_0.VREFH 3.82e-19
C73 3_bit_dac_0[1].2_bit_dac_0[0].switch2n_3v3_0.VOUTL 3_bit_dac_0[1].2_bit_dac_0[0].D0 2.38e-19
C74 D3_BUF 3_bit_dac_0[0].switch_n_3v3_1.DX_ 3.74e-19
C75 VCC D2_BUF 0.337f
C76 3_bit_dac_0[1].2_bit_dac_0[0].D1 D3 3.11e-20
C77 3_bit_dac_0[1].2_bit_dac_0[1].VOUT 3_bit_dac_0[1].2_bit_dac_0[1].switch2n_3v3_0.VREFH 2.34e-21
C78 3_bit_dac_0[1].2_bit_dac_0[0].D0 3_bit_dac_0[1].2_bit_dac_0[0].D1 0.00262f
C79 a_1556_1634# 3_bit_dac_0[0].2_bit_dac_0[0].D0 0.325f
C80 3_bit_dac_0[0].2_bit_dac_0[0].switch2n_3v3_0.VREFH 3_bit_dac_0[0].2_bit_dac_0[0].switch2n_3v3_0.R_H 1.39f
C81 a_1556_4090# 3_bit_dac_0[1].2_bit_dac_0[1].switch2n_3v3_0.R_H 0.397f
C82 3_bit_dac_0[0].2_bit_dac_0[0].D0 VCC 1.17f
C83 3_bit_dac_0[1].2_bit_dac_0[0].switch2n_3v3_0.VOUTH a_1556_2862# 0.0892f
C84 3_bit_dac_0[0].2_bit_dac_0[0].switch2n_3v3_0.VREFH 3_bit_dac_0[0].2_bit_dac_0[0].switch2n_3v3_0.VOUTL 0.322f
C85 3_bit_dac_0[0].D0 3_bit_dac_0[0].2_bit_dac_0[1].switch2n_3v3_0.VOUTL 2.38e-19
C86 VOUT 3_bit_dac_0[1].VOUT 0.505f
C87 3_bit_dac_0[1].2_bit_dac_0[1].switch2n_3v3_0.VOUTH switch_n_3v3_0.D7 4.71e-19
C88 3_bit_dac_0[1].2_bit_dac_0[1].VOUT 3_bit_dac_0[1].2_bit_dac_0[1].switch2n_3v3_0.R_H 3.62e-20
C89 D0_BUF 3_bit_dac_0[0].2_bit_dac_0[0].switch_n_3v3_v2_0.DX_ 5.84e-19
C90 3_bit_dac_0[0].2_bit_dac_0[0].VOUT 3_bit_dac_0[0].2_bit_dac_0[0].switch_n_3v3_v2_0.DX_ 0.229f
C91 3_bit_dac_0[0].2_bit_dac_0[0].VOUT switch_n_3v3_0.D6 0.0199f
C92 3_bit_dac_0[1].2_bit_dac_0[0].switch2n_3v3_0.VOUTL switch_n_3v3_0.D5 0.00306f
C93 3_bit_dac_0[0].2_bit_dac_0[1].switch2n_3v3_0.R_L 3_bit_dac_0[1].2_bit_dac_0[1].VREFH 0.005f
C94 VCC 3_bit_dac_0[0].switch_n_3v3_1.DX_ 0.698f
C95 VREFL D0 0.77f
C96 switch_n_3v3_0.D2 3_bit_dac_0[1].2_bit_dac_0[0].VOUT 0.613f
C97 D1 switch_n_3v3_0.D4 1.41e-21
C98 switch_n_3v3_0.D2 3_bit_dac_0[0].2_bit_dac_0[1].VOUT 0.14f
C99 3_bit_dac_0[1].2_bit_dac_0[0].D1 switch_n_3v3_0.D5 2.05e-20
C100 a_1556_406# D1_BUF 6.04e-19
C101 switch_n_3v3_0.DX_ switch_n_3v3_0.D4 1.33e-19
C102 3_bit_dac_0[1].2_bit_dac_0[1].switch2n_3v3_0.VOUTL 3_bit_dac_0[1].2_bit_dac_0[0].switch2n_3v3_0.R_H 8.92e-19
C103 3_bit_dac_0[1].2_bit_dac_0[0].switch_n_3v3_v2_0.DX_ switch_n_3v3_0.D7 1.45e-19
C104 3_bit_dac_0[0].D0 3_bit_dac_0[1].2_bit_dac_0[0].switch2n_3v3_0.R_H 0.24f
C105 switch_n_3v3_0.D2 D3_BUF 0.631f
C106 3_bit_dac_0[0].2_bit_dac_0[1].VREFH a_1556_1634# 2.68e-20
C107 VREFH 3_bit_dac_0[0].2_bit_dac_0[0].switch2n_3v3_0.R_L 7.62e-19
C108 3_bit_dac_0[0].2_bit_dac_0[1].VREFH VCC 0.132f
C109 D3 3_bit_dac_0[1].2_bit_dac_0[0].VOUT 0.0607f
C110 D3 3_bit_dac_0[0].2_bit_dac_0[1].VOUT 2.69e-19
C111 3_bit_dac_0[1].2_bit_dac_0[0].D0 3_bit_dac_0[1].2_bit_dac_0[1].VREFH 1.06f
C112 D0 3_bit_dac_0[1].2_bit_dac_0[0].switch2n_3v3_0.VREFH 1.9e-19
C113 3_bit_dac_0[1].2_bit_dac_0[1].switch2n_3v3_0.VOUTL 3_bit_dac_0[0].D0 0.00349f
C114 a_1556_406# 3_bit_dac_0[0].2_bit_dac_0[0].switch2n_3v3_0.VOUTH 0.0892f
C115 D3_BUF D3 0.0618f
C116 a_1556_4090# 3_bit_dac_0[1].2_bit_dac_0[1].switch_n_3v3_v2_0.DX_ 1.21e-20
C117 3_bit_dac_0[0].2_bit_dac_0[0].switch2n_3v3_0.R_L 3_bit_dac_0[1].VREFH 0.005f
C118 3_bit_dac_0[0].2_bit_dac_0[1].switch2n_3v3_0.R_L a_1556_1634# 0.403f
C119 3_bit_dac_0[0].2_bit_dac_0[1].switch2n_3v3_0.R_L VCC 0.291f
C120 a_1556_406# 3_bit_dac_0[0].2_bit_dac_0[1].switch2n_3v3_0.VOUTL 0.00538f
C121 3_bit_dac_0[0].2_bit_dac_0[0].switch2n_3v3_0.VOUTH switch_n_3v3_0.D7 2.94e-20
C122 switch_n_3v3_0.D2 VCC 0.776f
C123 3_bit_dac_0[1].2_bit_dac_0[0].switch2n_3v3_0.VOUTL 3_bit_dac_0[0].D1 0.635f
C124 3_bit_dac_0[1].2_bit_dac_0[0].D0 3_bit_dac_0[1].2_bit_dac_0[1].switch2n_3v3_0.R_L 0.315f
C125 switch_n_3v3_0.D7 3_bit_dac_0[0].2_bit_dac_0[1].switch2n_3v3_0.VOUTL 0.00143f