* SPICE3 file created from dac1.ext - technology: sky130A

.subckt dac1 D0 VREFL D0_BUF VREFH D1 D1_BUF D2 D2_BUF VOUT VSS VCC
X0 a_426_2065# a_572_1542# VSS.t21 sky130_fd_pr__res_generic_nd__hv w=0.42 l=2.1
X1 a_1438_1634# D0.t0 VSS.t30 VSS.t29 sky130_fd_pr__nfet_g5v0d10v5 ad=0.145 pd=1.58 as=0.145 ps=1.58 w=0.5 l=0.5
X2 a_1438_406# 2_bit_dac_0[0].D0 VCC.t16 VCC.t15 sky130_fd_pr__pfet_g5v0d10v5 ad=0.29 pd=2.58 as=0.29 ps=2.58 w=1 l=0.5
X3 D0_BUF.t1 a_1438_406# VCC.t20 VCC.t19 sky130_fd_pr__pfet_g5v0d10v5 ad=0.29 pd=2.58 as=0.29 ps=2.58 w=1 l=0.5
X4 2_bit_dac_0[0].switch2n_3v3_0.VOUTH 2_bit_dac_0[0].switch_n_3v3_v2_0.DX_ 2_bit_dac_0[0].VOUT VCC.t8 sky130_fd_pr__pfet_g5v0d10v5 ad=0.29 pd=2.58 as=0.29 ps=2.58 w=1 l=0.5
X5 2_bit_dac_0[0].D0 a_1438_1634# VSS.t16 VSS.t15 sky130_fd_pr__nfet_g5v0d10v5 ad=0.145 pd=1.58 as=0.145 ps=1.58 w=0.5 l=0.5
X6 2_bit_dac_0[1].VREFH D0_BUF.t2 2_bit_dac_0[0].switch2n_3v3_0.VOUTL VCC.t25 sky130_fd_pr__pfet_g5v0d10v5 ad=0.29 pd=2.58 as=0.29 ps=2.58 w=1 l=0.5
X7 2_bit_dac_0[0].switch2n_3v3_0.VOUTH a_1438_406# a_572_314# VSS.t25 sky130_fd_pr__nfet_g5v0d10v5 ad=0.145 pd=1.58 as=0.145 ps=1.58 w=0.5 l=0.5
X8 a_716_1548# VREFL.t2 VSS.t28 sky130_fd_pr__res_generic_nd__hv w=0.42 l=2.1
X9 2_bit_dac_0[1].switch_n_3v3_v2_0.DX_ D1.t0 VCC.t24 VCC.t23 sky130_fd_pr__pfet_g5v0d10v5 ad=0.29 pd=2.58 as=0.29 ps=2.58 w=1 l=0.5
X10 2_bit_dac_0[1].VOUT 2_bit_dac_0[0].D1 2_bit_dac_0[1].switch2n_3v3_0.VOUTH VSS.t3 sky130_fd_pr__nfet_g5v0d10v5 ad=0.145 pd=1.58 as=0.145 ps=1.58 w=0.5 l=0.5
X11 2_bit_dac_0[1].VOUT switch_n_3v3_1.DX_ VOUT.t1 VSS.t6 sky130_fd_pr__nfet_g5v0d10v5 ad=0.145 pd=1.58 as=0.145 ps=1.58 w=0.5 l=0.5
X12 a_572_314# D0_BUF.t3 2_bit_dac_0[0].switch2n_3v3_0.VOUTH VCC.t26 sky130_fd_pr__pfet_g5v0d10v5 ad=0.29 pd=2.58 as=0.29 ps=2.58 w=1 l=0.5
X13 2_bit_dac_0[1].switch2n_3v3_0.VOUTH 2_bit_dac_0[1].switch_n_3v3_v2_0.DX_ 2_bit_dac_0[1].VOUT VCC.t33 sky130_fd_pr__pfet_g5v0d10v5 ad=0.29 pd=2.58 as=0.29 ps=2.58 w=1 l=0.5
X14 2_bit_dac_0[0].switch2n_3v3_0.VOUTL a_1438_406# 2_bit_dac_0[1].VREFH VSS.t24 sky130_fd_pr__nfet_g5v0d10v5 ad=0.145 pd=1.58 as=0.145 ps=1.58 w=0.5 l=0.5
X15 a_426_2065# 2_bit_dac_0[0].D0 2_bit_dac_0[1].switch2n_3v3_0.VOUTH VSS.t20 sky130_fd_pr__nfet_g5v0d10v5 ad=0.145 pd=1.58 as=0.145 ps=1.58 w=0.5 l=0.5
X16 2_bit_dac_0[0].switch2n_3v3_0.VOUTL 2_bit_dac_0[0].switch_n_3v3_v2_0.DX_ 2_bit_dac_0[0].VOUT VSS.t11 sky130_fd_pr__nfet_g5v0d10v5 ad=0.145 pd=1.58 as=0.145 ps=1.58 w=0.5 l=0.5
X17 VREFL.t1 2_bit_dac_0[0].D0 2_bit_dac_0[1].switch2n_3v3_0.VOUTL VCC.t14 sky130_fd_pr__pfet_g5v0d10v5 ad=0.29 pd=2.58 as=0.29 ps=2.58 w=1 l=0.5
X18 2_bit_dac_0[0].switch_n_3v3_v2_0.DX_ 2_bit_dac_0[0].D1 VSS.t2 VSS.t1 sky130_fd_pr__nfet_g5v0d10v5 ad=0.145 pd=1.58 as=0.145 ps=1.58 w=0.5 l=0.5
X19 2_bit_dac_0[1].switch2n_3v3_0.VOUTH a_1438_1634# a_426_2065# VCC.t12 sky130_fd_pr__pfet_g5v0d10v5 ad=0.29 pd=2.58 as=0.29 ps=2.58 w=1 l=0.5
X20 2_bit_dac_0[0].D1 2_bit_dac_0[1].switch_n_3v3_v2_0.DX_ VCC.t32 VCC.t31 sky130_fd_pr__pfet_g5v0d10v5 ad=0.29 pd=2.58 as=0.29 ps=2.58 w=1 l=0.5
X21 2_bit_dac_0[1].switch2n_3v3_0.VOUTL 2_bit_dac_0[1].switch_n_3v3_v2_0.DX_ 2_bit_dac_0[1].VOUT VSS.t36 sky130_fd_pr__nfet_g5v0d10v5 ad=0.145 pd=1.58 as=0.145 ps=1.58 w=0.5 l=0.5
X22 D2_BUF.t0 switch_n_3v3_1.DX_ VSS.t5 VSS.t4 sky130_fd_pr__nfet_g5v0d10v5 ad=0.145 pd=1.58 as=0.145 ps=1.58 w=0.5 l=0.5
X23 D1_BUF.t1 2_bit_dac_0[0].switch_n_3v3_v2_0.DX_ VCC.t7 VCC.t6 sky130_fd_pr__pfet_g5v0d10v5 ad=0.29 pd=2.58 as=0.29 ps=2.58 w=1 l=0.5
X24 switch_n_3v3_1.DX_ D2.t0 VCC.t30 VCC.t29 sky130_fd_pr__pfet_g5v0d10v5 ad=0.29 pd=2.58 as=0.29 ps=2.58 w=1 l=0.5
X25 a_426_837# a_572_314# VSS.t21 sky130_fd_pr__res_generic_nd__hv w=0.42 l=2.1
X26 a_572_314# a_716_320# VSS.t12 sky130_fd_pr__res_generic_nd__hv w=0.42 l=2.1
X27 2_bit_dac_0[1].switch2n_3v3_0.VOUTL a_1438_1634# a_716_1548# VCC.t11 sky130_fd_pr__pfet_g5v0d10v5 ad=0.29 pd=2.58 as=0.29 ps=2.58 w=1 l=0.5
X28 a_1438_1634# D0.t1 VCC.t22 VCC.t21 sky130_fd_pr__pfet_g5v0d10v5 ad=0.29 pd=2.58 as=0.29 ps=2.58 w=1 l=0.5
X29 VOUT.t3 D2_BUF.t2 2_bit_dac_0[1].VOUT VCC.t27 sky130_fd_pr__pfet_g5v0d10v5 ad=0.29 pd=2.58 as=0.29 ps=2.58 w=1 l=0.5
X30 a_716_320# 2_bit_dac_0[1].VREFH VSS.t28 sky130_fd_pr__res_generic_nd__hv w=0.42 l=2.1
X31 a_1438_406# 2_bit_dac_0[0].D0 VSS.t19 VSS.t18 sky130_fd_pr__nfet_g5v0d10v5 ad=0.145 pd=1.58 as=0.145 ps=1.58 w=0.5 l=0.5
X32 D0_BUF.t0 a_1438_406# VSS.t23 VSS.t22 sky130_fd_pr__nfet_g5v0d10v5 ad=0.145 pd=1.58 as=0.145 ps=1.58 w=0.5 l=0.5
X33 2_bit_dac_0[0].VOUT D1_BUF.t2 2_bit_dac_0[0].switch2n_3v3_0.VOUTL VCC.t28 sky130_fd_pr__pfet_g5v0d10v5 ad=0.29 pd=2.58 as=0.29 ps=2.58 w=1 l=0.5
X34 2_bit_dac_0[0].D0 a_1438_1634# VCC.t10 VCC.t9 sky130_fd_pr__pfet_g5v0d10v5 ad=0.29 pd=2.58 as=0.29 ps=2.58 w=1 l=0.5
X35 a_716_320# D0_BUF.t4 2_bit_dac_0[0].switch2n_3v3_0.VOUTL VSS.t7 sky130_fd_pr__nfet_g5v0d10v5 ad=0.145 pd=1.58 as=0.145 ps=1.58 w=0.5 l=0.5
X36 a_572_1542# a_716_1548# VSS.t12 sky130_fd_pr__res_generic_nd__hv w=0.42 l=2.1
X37 2_bit_dac_0[1].switch_n_3v3_v2_0.DX_ D1.t1 VSS.t27 VSS.t26 sky130_fd_pr__nfet_g5v0d10v5 ad=0.145 pd=1.58 as=0.145 ps=1.58 w=0.5 l=0.5
X38 2_bit_dac_0[0].switch2n_3v3_0.VOUTH a_1438_406# a_426_837# VCC.t18 sky130_fd_pr__pfet_g5v0d10v5 ad=0.29 pd=2.58 as=0.29 ps=2.58 w=1 l=0.5
X39 VOUT.t2 D2_BUF.t3 2_bit_dac_0[0].VOUT VSS.t8 sky130_fd_pr__nfet_g5v0d10v5 ad=0.145 pd=1.58 as=0.145 ps=1.58 w=0.5 l=0.5
X40 a_426_837# D0_BUF.t5 2_bit_dac_0[0].switch2n_3v3_0.VOUTH VSS.t37 sky130_fd_pr__nfet_g5v0d10v5 ad=0.145 pd=1.58 as=0.145 ps=1.58 w=0.5 l=0.5
X41 a_426_837# VREFH.t0 VSS.t0 sky130_fd_pr__res_generic_nd__hv w=0.42 l=2.1
X42 2_bit_dac_0[0].switch2n_3v3_0.VOUTL a_1438_406# a_716_320# VCC.t17 sky130_fd_pr__pfet_g5v0d10v5 ad=0.29 pd=2.58 as=0.29 ps=2.58 w=1 l=0.5
X43 a_426_2065# 2_bit_dac_0[1].VREFH VSS.t0 sky130_fd_pr__res_generic_nd__hv w=0.42 l=2.1
X44 2_bit_dac_0[0].VOUT D1_BUF.t3 2_bit_dac_0[0].switch2n_3v3_0.VOUTH VSS.t31 sky130_fd_pr__nfet_g5v0d10v5 ad=0.145 pd=1.58 as=0.145 ps=1.58 w=0.5 l=0.5
X45 a_572_1542# 2_bit_dac_0[0].D0 2_bit_dac_0[1].switch2n_3v3_0.VOUTH VCC.t13 sky130_fd_pr__pfet_g5v0d10v5 ad=0.29 pd=2.58 as=0.29 ps=2.58 w=1 l=0.5
X46 a_716_1548# 2_bit_dac_0[0].D0 2_bit_dac_0[1].switch2n_3v3_0.VOUTL VSS.t17 sky130_fd_pr__nfet_g5v0d10v5 ad=0.145 pd=1.58 as=0.145 ps=1.58 w=0.5 l=0.5
X47 2_bit_dac_0[1].switch2n_3v3_0.VOUTH a_1438_1634# a_572_1542# VSS.t14 sky130_fd_pr__nfet_g5v0d10v5 ad=0.145 pd=1.58 as=0.145 ps=1.58 w=0.5 l=0.5
X48 2_bit_dac_0[0].D1 2_bit_dac_0[1].switch_n_3v3_v2_0.DX_ VSS.t35 VSS.t34 sky130_fd_pr__nfet_g5v0d10v5 ad=0.145 pd=1.58 as=0.145 ps=1.58 w=0.5 l=0.5
X49 2_bit_dac_0[0].switch_n_3v3_v2_0.DX_ 2_bit_dac_0[0].D1 VCC.t2 VCC.t1 sky130_fd_pr__pfet_g5v0d10v5 ad=0.29 pd=2.58 as=0.29 ps=2.58 w=1 l=0.5
X50 D2_BUF.t1 switch_n_3v3_1.DX_ VCC.t5 VCC.t4 sky130_fd_pr__pfet_g5v0d10v5 ad=0.29 pd=2.58 as=0.29 ps=2.58 w=1 l=0.5
X51 D1_BUF.t0 2_bit_dac_0[0].switch_n_3v3_v2_0.DX_ VSS.t10 VSS.t9 sky130_fd_pr__nfet_g5v0d10v5 ad=0.145 pd=1.58 as=0.145 ps=1.58 w=0.5 l=0.5
X52 switch_n_3v3_1.DX_ D2.t1 VSS.t33 VSS.t32 sky130_fd_pr__nfet_g5v0d10v5 ad=0.145 pd=1.58 as=0.145 ps=1.58 w=0.5 l=0.5
X53 2_bit_dac_0[1].switch2n_3v3_0.VOUTL a_1438_1634# VREFL.t0 VSS.t13 sky130_fd_pr__nfet_g5v0d10v5 ad=0.145 pd=1.58 as=0.145 ps=1.58 w=0.5 l=0.5
X54 2_bit_dac_0[1].VOUT 2_bit_dac_0[0].D1 2_bit_dac_0[1].switch2n_3v3_0.VOUTL VCC.t0 sky130_fd_pr__pfet_g5v0d10v5 ad=0.29 pd=2.58 as=0.29 ps=2.58 w=1 l=0.5
X55 2_bit_dac_0[0].VOUT switch_n_3v3_1.DX_ VOUT.t0 VCC.t3 sky130_fd_pr__pfet_g5v0d10v5 ad=0.29 pd=2.58 as=0.29 ps=2.58 w=1 l=0.5
C0 2_bit_dac_0[0].D0 2_bit_dac_0[1].VREFH 1.06f
C1 2_bit_dac_0[0].D0 VCC 1.18f
C2 a_426_837# a_572_314# 1.39f
C3 a_426_2065# a_572_1542# 1.39f
R0 VSS.n982 VSS.n981 12274.8
R1 VSS.n981 VSS.n980 12232.2
R2 VSS.n841 VSS.t20 4305.17
R3 VSS.n524 VSS.t37 2804.58
R4 VSS.n523 VSS.t7 2770.93
R5 VSS.n525 VSS.n524 2671.38
R6 VSS.n841 VSS.n840 2406.66
R7 VSS.t31 VSS.n622 2349.66
R8 VSS.t11 VSS.t31 2304.76
R9 VSS.t3 VSS.n673 1937.11
R10 VSS.n842 VSS.n841 1896.55
R11 VSS.t36 VSS.t3 1892.74
R12 VSS.t17 VSS.n842 1791.5
R13 VSS.t13 VSS.t17 1683.22
R14 VSS.n45 VSS.t24 1560.55
R15 VSS.n674 VSS.t11 1331.97
R16 VSS.n674 VSS.t36 1093.85
R17 VSS.n843 VSS.t13 1045.79
R18 VSS.n676 VSS.n675 1017.62
R19 VSS.n675 VSS.n674 772.908
R20 VSS.n354 VSS.t8 758.37
R21 VSS.t8 VSS.t6 746.255
R22 VSS.n981 VSS.t28 447.884
R23 VSS.n933 VSS.n930 332.558
R24 VSS.n129 VSS.n128 292.5
R25 VSS.t28 VSS.t12 275.897
R26 VSS.n523 VSS.t25 269.807
R27 VSS.t21 VSS.t0 261.565
R28 VSS.t12 VSS.t21 257.981
R29 VSS.n609 VSS.t9 239.457
R30 VSS.n660 VSS.t34 198.87
R31 VSS.n842 VSS.t14 188.758
R32 VSS.n106 VSS.n105 121.799
R33 VSS.n134 VSS.n133 121.799
R34 VSS.n590 VSS.n589 112.246
R35 VSS.n561 VSS.n560 112.246
R36 VSS.n87 VSS.n86 106.575
R37 VSS.n150 VSS.t18 106.575
R38 VSS.n910 VSS.n909 102.326
R39 VSS.n933 VSS.n932 102.326
R40 VSS.n85 VSS.t22 98.9624
R41 VSS.n608 VSS.n607 97.2794
R42 VSS.t1 VSS.n541 97.2794
R43 VSS.n640 VSS.n639 93.2208
R44 VSS.n814 VSS.n813 93.2208
R45 VSS.n66 VSS.n65 91.35
R46 VSS.n181 VSS.n180 91.35
R47 VSS.n891 VSS.n890 89.5354
R48 VSS.n203 VSS.t29 89.5354
R49 VSS.n889 VSS.t15 83.14
R50 VSS.n425 VSS.n424 82.3134
R51 VSS.n522 VSS.n521 82.3134
R52 VSS.n659 VSS.n658 80.7915
R53 VSS.t26 VSS.n285 80.7915
R54 VSS.n135 VSS.n129 80.0317
R55 VSS.n934 VSS.n927 80.0317
R56 VSS.n261 VSS.n260 76.7447
R57 VSS.n224 VSS.n223 76.7447
R58 VSS.n47 VSS.n46 76.1251
R59 VSS.n984 VSS.n983 76.1251
R60 VSS.n373 VSS.t4 75.1106
R61 VSS.n624 VSS.n623 68.3621
R62 VSS.n278 VSS.n277 68.3621
R63 VSS.n845 VSS.n844 63.954
R64 VSS.n979 VSS.n978 63.954
R65 VSS.n46 VSS.n45 53.2877
R66 VSS.n983 VSS.n982 53.2877
R67 VSS.n679 VSS.t33 46.866
R68 VSS.n837 VSS.t27 46.863
R69 VSS.n528 VSS.t2 46.863
R70 VSS.n649 VSS.t35 46.8459
R71 VSS.n599 VSS.t10 46.8459
R72 VSS.n380 VSS.t5 46.8455
R73 VSS.n168 VSS.t19 46.8085
R74 VSS.n233 VSS.t30 46.8085
R75 VSS.n96 VSS.t23 46.808
R76 VSS.n900 VSS.t16 46.808
R77 VSS.n622 VSS.n425 44.8985
R78 VSS.n525 VSS.n522 44.8985
R79 VSS.n844 VSS.n843 44.7679
R80 VSS.n980 VSS.n979 44.7679
R81 VSS.n65 VSS.n64 38.0628
R82 VSS.n180 VSS.n179 38.0628
R83 VSS.n673 VSS.n624 37.2886
R84 VSS.n840 VSS.n278 37.2886
R85 VSS.n389 VSS.n388 36.3441
R86 VSS.n701 VSS.n700 36.3441
R87 VSS.n524 VSS.n523 33.5883
R88 VSS.n260 VSS.n259 31.9772
R89 VSS.n223 VSS.n222 31.9772
R90 VSS.n372 VSS.n371 31.4983
R91 VSS.n410 VSS.n409 31.4983
R92 VSS.n609 VSS.n608 29.9325
R93 VSS.n542 VSS.t1 29.9325
R94 VSS.n353 VSS.n352 26.6525
R95 VSS.n423 VSS.n422 26.6525
R96 VSS.n660 VSS.n659 24.8593
R97 VSS.n286 VSS.t26 24.8593
R98 VSS.n107 VSS.n103 24.6255
R99 VSS.n135 VSS.n131 24.6255
R100 VSS.n911 VSS.n907 24.6255
R101 VSS.n934 VSS.n929 24.6255
R102 VSS.n86 VSS.n85 22.8379
R103 VSS.t18 VSS.n149 22.8379
R104 VSS.n88 VSS.n84 21.5474
R105 VSS.n151 VSS.n148 21.5474
R106 VSS.n892 VSS.n888 21.5474
R107 VSS.n204 VSS.n201 21.5474
R108 VSS.n638 VSS.n637 21.1076
R109 VSS.n812 VSS.n811 21.1076
R110 VSS.n387 VSS.n386 21.1076
R111 VSS.n699 VSS.n698 21.1076
R112 VSS.n588 VSS.n587 21.1076
R113 VSS.n559 VSS.n558 21.1076
R114 VSS.n890 VSS.n889 19.1865
R115 VSS.t29 VSS.n202 19.1865
R116 VSS.n67 VSS.n63 18.4693
R117 VSS.n182 VSS.n178 18.4693
R118 VSS.n262 VSS.n258 18.4693
R119 VSS.n225 VSS.n221 18.4693
R120 VSS.n657 VSS.n656 18.2934
R121 VSS.n284 VSS.n283 18.2934
R122 VSS.n370 VSS.n369 18.2934
R123 VSS.n408 VSS.n407 18.2934
R124 VSS.n606 VSS.n605 18.2934
R125 VSS.n540 VSS.n539 18.2934
R126 VSS.n626 VSS.n625 15.4791
R127 VSS.n280 VSS.n279 15.4791
R128 VSS.n351 VSS.n350 15.4791
R129 VSS.n421 VSS.n420 15.4791
R130 VSS.n427 VSS.n426 15.4791
R131 VSS.n520 VSS.n519 15.4791
R132 VSS.n48 VSS.n44 15.3911
R133 VSS.n985 VSS.n188 15.3911
R134 VSS.n846 VSS.n276 15.3911
R135 VSS.n977 VSS.n190 15.3911
R136 VSS.n591 VSS.n590 14.9665
R137 VSS.n562 VSS.n561 14.9665
R138 VSS.n354 VSS.n353 14.5379
R139 VSS.n676 VSS.n423 14.5379
R140 VSS.n641 VSS.n640 12.4299
R141 VSS.n815 VSS.n814 12.4299
R142 VSS.n373 VSS.n372 9.69213
R143 VSS.n672 VSS.n671 9.38145
R144 VSS.n358 VSS.n355 9.38145
R145 VSS.n621 VSS.n620 9.38145
R146 VSS.n564 VSS.n563 9.3005
R147 VSS.n563 VSS.n562 9.3005
R148 VSS.n593 VSS.n592 9.3005
R149 VSS.n592 VSS.n591 9.3005
R150 VSS.n611 VSS.n610 9.3005
R151 VSS.n610 VSS.n609 9.3005
R152 VSS.n544 VSS.n543 9.3005
R153 VSS.n543 VSS.n542 9.3005
R154 VSS.n527 VSS.n526 9.3005
R155 VSS.n526 VSS.n525 9.3005
R156 VSS.n622 VSS.n621 9.3005
R157 VSS.n183 VSS.n182 9.3005
R158 VSS.n182 VSS.n181 9.3005
R159 VSS.n152 VSS.n151 9.3005
R160 VSS.n151 VSS.n150 9.3005
R161 VSS.n136 VSS.n135 9.3005
R162 VSS.n135 VSS.n134 9.3005
R163 VSS.n89 VSS.n88 9.3005
R164 VSS.n88 VSS.n87 9.3005
R165 VSS.n108 VSS.n107 9.3005
R166 VSS.n107 VSS.n106 9.3005
R167 VSS.n986 VSS.n985 9.3005
R168 VSS.n985 VSS.n984 9.3005
R169 VSS.n49 VSS.n48 9.3005
R170 VSS.n48 VSS.n47 9.3005
R171 VSS.n68 VSS.n67 9.3005
R172 VSS.n67 VSS.n66 9.3005
R173 VSS.n704 VSS.n703 9.3005
R174 VSS.n703 VSS.n702 9.3005
R175 VSS.n392 VSS.n391 9.3005
R176 VSS.n391 VSS.n390 9.3005
R177 VSS.n375 VSS.n374 9.3005
R178 VSS.n374 VSS.n373 9.3005
R179 VSS.n413 VSS.n412 9.3005
R180 VSS.n412 VSS.n411 9.3005
R181 VSS.n678 VSS.n677 9.3005
R182 VSS.n677 VSS.n676 9.3005
R183 VSS.n355 VSS.n354 9.3005
R184 VSS.n817 VSS.n816 9.3005
R185 VSS.n816 VSS.n815 9.3005
R186 VSS.n643 VSS.n642 9.3005
R187 VSS.n642 VSS.n641 9.3005
R188 VSS.n662 VSS.n661 9.3005
R189 VSS.n661 VSS.n660 9.3005
R190 VSS.n288 VSS.n287 9.3005
R191 VSS.n287 VSS.n286 9.3005
R192 VSS.n839 VSS.n838 9.3005
R193 VSS.n840 VSS.n839 9.3005
R194 VSS.n673 VSS.n672 9.3005
R195 VSS.n847 VSS.n846 9.3005
R196 VSS.n846 VSS.n845 9.3005
R197 VSS.n263 VSS.n262 9.3005
R198 VSS.n262 VSS.n261 9.3005
R199 VSS.n893 VSS.n892 9.3005
R200 VSS.n892 VSS.n891 9.3005
R201 VSS.n912 VSS.n911 9.3005
R202 VSS.n911 VSS.n910 9.3005
R203 VSS.n935 VSS.n934 9.3005
R204 VSS.n934 VSS.n933 9.3005
R205 VSS.n205 VSS.n204 9.3005
R206 VSS.n204 VSS.n203 9.3005
R207 VSS.n226 VSS.n225 9.3005
R208 VSS.n225 VSS.n224 9.3005
R209 VSS.n977 VSS.n976 9.3005
R210 VSS.n978 VSS.n977 9.3005
R211 VSS.n576 VSS.n575 9.15497
R212 VSS.n575 VSS.n574 9.15497
R213 VSS.n403 VSS.n402 9.15497
R214 VSS.n402 VSS.n401 9.15497
R215 VSS.n801 VSS.n800 9.15497
R216 VSS.n800 VSS.n799 9.15497
R217 VSS.n672 VSS.n626 8.44336
R218 VSS.n839 VSS.n280 8.44336
R219 VSS.n355 VSS.n351 8.44336
R220 VSS.n677 VSS.n421 8.44336
R221 VSS.n621 VSS.n427 8.44336
R222 VSS.n526 VSS.n520 8.44336
R223 VSS.n63 VSS.n62 7.69581
R224 VSS.n178 VSS.n177 7.69581
R225 VSS.n258 VSS.n257 7.69581
R226 VSS.n221 VSS.n220 7.69581
R227 VSS.n105 VSS.n104 7.61296
R228 VSS.n133 VSS.n132 7.61296
R229 VSS.n411 VSS.t32 7.26922
R230 VSS.n909 VSS.n908 6.39585
R231 VSS.n932 VSS.n931 6.39585
R232 VSS.n661 VSS.n657 5.62907
R233 VSS.n287 VSS.n284 5.62907
R234 VSS.n374 VSS.n370 5.62907
R235 VSS.n412 VSS.n408 5.62907
R236 VSS.n610 VSS.n606 5.62907
R237 VSS.n543 VSS.n540 5.62907
R238 VSS.n188 VSS.n187 5.33568
R239 VSS.n44 VSS.n43 5.33568
R240 VSS.n276 VSS.n275 5.33568
R241 VSS.n190 VSS.n189 5.33568
R242 VSS.n390 VSS.n389 4.84631
R243 VSS.n702 VSS.n701 4.84631
R244 VSS.n84 VSS.n83 4.61769
R245 VSS.n148 VSS.n147 4.61769
R246 VSS.n888 VSS.n887 4.61769
R247 VSS.n201 VSS.n200 4.61769
R248 VSS.n645 VSS.n644 4.5005
R249 VSS.n820 VSS.n819 4.5005
R250 VSS.n394 VSS.n393 4.5005
R251 VSS.n707 VSS.n706 4.5005
R252 VSS.n52 VSS.n51 4.5005
R253 VSS.n72 VSS.n71 4.5005
R254 VSS.n111 VSS.n110 4.5005
R255 VSS.n93 VSS.n92 4.5005
R256 VSS.n154 VSS.n153 4.5005
R257 VSS.n138 VSS.n137 4.5005
R258 VSS.n117 VSS.n116 4.5005
R259 VSS.n121 VSS.n120 4.5005
R260 VSS.n988 VSS.n987 4.5005
R261 VSS.n548 VSS.n547 4.5005
R262 VSS.n595 VSS.n594 4.5005
R263 VSS.n567 VSS.n566 4.5005
R264 VSS.n897 VSS.n896 4.5005
R265 VSS.n850 VSS.n849 4.5005
R266 VSS.n267 VSS.n266 4.5005
R267 VSS.n915 VSS.n914 4.5005
R268 VSS.n921 VSS.n920 4.5005
R269 VSS.n943 VSS.n942 4.5005
R270 VSS.n937 VSS.n936 4.5005
R271 VSS.n207 VSS.n206 4.5005
R272 VSS.n228 VSS.n227 4.5005
R273 VSS.n975 VSS.n974 4.5005
R274 VSS.n528 VSS.n527 3.69976
R275 VSS.n838 VSS.n837 3.69976
R276 VSS.n679 VSS.n678 3.69922
R277 VSS.n186 VSS.n185 3.29193
R278 VSS.n429 VSS.n428 3.29193
R279 VSS.n292 VSS.n291 3.2005
R280 VSS.n417 VSS.n416 3.2005
R281 VSS.n577 VSS.n576 3.03311
R282 VSS.n612 VSS.n611 3.03311
R283 VSS.n404 VSS.n403 3.03311
R284 VSS.n376 VSS.n375 3.03311
R285 VSS.n802 VSS.n801 3.03311
R286 VSS.n663 VSS.n662 3.03311
R287 VSS.n642 VSS.n638 2.81479
R288 VSS.n816 VSS.n812 2.81479
R289 VSS.n391 VSS.n387 2.81479
R290 VSS.n703 VSS.n699 2.81479
R291 VSS.n592 VSS.n588 2.81479
R292 VSS.n563 VSS.n559 2.81479
R293 VSS.t32 VSS.n410 2.42341
R294 VSS.n174 VSS.n173 2.37764
R295 VSS.n1008 VSS.n1007 2.27266
R296 VSS.n116 VSS.n115 2.01193
R297 VSS.n920 VSS.n919 2.01193
R298 VSS.n671 VSS.n670 1.98071
R299 VSS.n359 VSS.n358 1.98071
R300 VSS.n620 VSS.n619 1.98071
R301 VSS.n662 VSS.n653 1.55479
R302 VSS.n375 VSS.n366 1.55479
R303 VSS.n103 VSS.n102 1.53956
R304 VSS.n131 VSS.n130 1.53956
R305 VSS.n907 VSS.n906 1.53956
R306 VSS.n929 VSS.n928 1.53956
R307 VSS.n715 VSS.n714 1.5005
R308 VSS.n290 VSS.n289 1.46336
R309 VSS.n415 VSS.n414 1.46336
R310 VSS.n108 VSS.n101 1.46336
R311 VSS.n136 VSS.n127 1.46336
R312 VSS.n547 VSS.n546 1.46336
R313 VSS.n912 VSS.n905 1.46336
R314 VSS.n935 VSS.n926 1.46336
R315 VSS.n644 VSS.n634 1.37193
R316 VSS.n636 VSS.n635 1.37193
R317 VSS.n810 VSS.n809 1.37193
R318 VSS.n819 VSS.n818 1.37193
R319 VSS.n393 VSS.n383 1.37193
R320 VSS.n385 VSS.n384 1.37193
R321 VSS.n697 VSS.n696 1.37193
R322 VSS.n706 VSS.n705 1.37193
R323 VSS.n594 VSS.n584 1.37193
R324 VSS.n586 VSS.n585 1.37193
R325 VSS.n557 VSS.n556 1.37193
R326 VSS.n566 VSS.n565 1.37193
R327 VSS.n89 VSS.n82 1.2805
R328 VSS.n893 VSS.n886 1.2805
R329 VSS.n205 VSS.n199 1.2805
R330 VSS.n655 VSS.n654 1.18907
R331 VSS.n282 VSS.n281 1.18907
R332 VSS.n368 VSS.n367 1.18907
R333 VSS.n406 VSS.n405 1.18907
R334 VSS.n604 VSS.n603 1.18907
R335 VSS.n538 VSS.n537 1.18907
R336 VSS.n460 VSS.n459 1.13717
R337 VSS.n511 VSS.n510 1.13717
R338 VSS.n345 VSS.n344 1.13717
R339 VSS.n739 VSS.n738 1.13717
R340 VSS.n757 VSS.n756 1.13717
R341 VSS.n794 VSS.n793 1.13717
R342 VSS.n802 VSS.n798 1.1255
R343 VSS.n577 VSS.n515 1.1255
R344 VSS.n68 VSS.n61 1.09764
R345 VSS.n184 VSS.n183 1.09764
R346 VSS.n263 VSS.n256 1.09764
R347 VSS.n226 VSS.n219 1.09764
R348 VSS.n949 VSS.n944 1.04225
R349 VSS.n628 VSS.n627 1.00621
R350 VSS.n293 VSS.n292 1.00621
R351 VSS.n357 VSS.n356 1.00621
R352 VSS.n418 VSS.n417 1.00621
R353 VSS.n71 VSS.n68 1.00621
R354 VSS.n70 VSS.n69 1.00621
R355 VSS.n137 VSS.n125 1.00621
R356 VSS.n430 VSS.n429 1.00621
R357 VSS.n517 VSS.n516 1.00621
R358 VSS.n266 VSS.n263 1.00621
R359 VSS.n265 VSS.n264 1.00621
R360 VSS.n936 VSS.n924 1.00621
R361 VSS.n51 VSS.n49 0.914786
R362 VSS.n110 VSS.n109 0.914786
R363 VSS.n116 VSS.n114 0.914786
R364 VSS.n175 VSS.n174 0.914786
R365 VSS.n183 VSS.n176 0.914786
R366 VSS.n987 VSS.n986 0.914786
R367 VSS.n849 VSS.n847 0.914786
R368 VSS.n914 VSS.n913 0.914786
R369 VSS.n920 VSS.n918 0.914786
R370 VSS.n217 VSS.n216 0.914786
R371 VSS.n227 VSS.n226 0.914786
R372 VSS.n976 VSS.n975 0.914786
R373 VSS.n990 VSS.n989 0.908949
R374 VSS.n973 VSS.n972 0.908949
R375 VSS.n42 VSS.n41 0.908879
R376 VSS.n852 VSS.n851 0.908879
R377 VSS.n1001 VSS.n1000 0.853
R378 VSS.n868 VSS.n867 0.853
R379 VSS.n950 VSS.n949 0.853
R380 VSS.n962 VSS.n961 0.853
R381 VSS.n92 VSS.n89 0.823357
R382 VSS.n91 VSS.n90 0.823357
R383 VSS.n120 VSS.n119 0.823357
R384 VSS.n153 VSS.n146 0.823357
R385 VSS.n896 VSS.n893 0.823357
R386 VSS.n895 VSS.n894 0.823357
R387 VSS.n942 VSS.n941 0.823357
R388 VSS.n206 VSS.n197 0.823357
R389 VSS.n92 VSS.n91 0.731929
R390 VSS.n146 VSS.n145 0.731929
R391 VSS.n153 VSS.n152 0.731929
R392 VSS.n896 VSS.n895 0.731929
R393 VSS.n197 VSS.n196 0.731929
R394 VSS.n206 VSS.n205 0.731929
R395 VSS.n51 VSS.n50 0.6405
R396 VSS.n110 VSS.n108 0.6405
R397 VSS.n176 VSS.n175 0.6405
R398 VSS.n987 VSS.n186 0.6405
R399 VSS.n849 VSS.n848 0.6405
R400 VSS.n914 VSS.n912 0.6405
R401 VSS.n227 VSS.n217 0.6405
R402 VSS.n975 VSS.n191 0.6405
R403 VSS.n71 VSS.n70 0.549071
R404 VSS.n137 VSS.n136 0.549071
R405 VSS.n266 VSS.n265 0.549071
R406 VSS.n936 VSS.n935 0.549071
R407 VSS VSS.n502 0.517836
R408 VSS VSS.n785 0.517836
R409 VSS.n671 VSS.n628 0.465127
R410 VSS.n358 VSS.n357 0.465127
R411 VSS.n620 VSS.n430 0.465127
R412 VSS.n294 VSS.n293 0.457643
R413 VSS.n419 VSS.n418 0.457643
R414 VSS.n61 VSS.n60 0.457643
R415 VSS.n185 VSS.n184 0.457643
R416 VSS.n518 VSS.n517 0.457643
R417 VSS.n256 VSS.n255 0.457643
R418 VSS.n219 VSS.n218 0.457643
R419 VSS.n662 VSS.n655 0.366214
R420 VSS.n288 VSS.n282 0.366214
R421 VSS.n375 VSS.n368 0.366214
R422 VSS.n413 VSS.n406 0.366214
R423 VSS.n611 VSS.n604 0.366214
R424 VSS.n544 VSS.n538 0.366214
R425 VSS.n450 VSS 0.301636
R426 VSS.n335 VSS 0.301636
R427 VSS VSS.n1006 0.300964
R428 VSS VSS.n0 0.300964
R429 VSS.n747 VSS 0.29425
R430 VSS.n82 VSS.n81 0.274786
R431 VSS.n173 VSS.n172 0.274786
R432 VSS.n886 VSS.n885 0.274786
R433 VSS.n199 VSS.n198 0.274786
R434 VSS VSS.n746 0.206964
R435 VSS.n644 VSS.n643 0.183357
R436 VSS.n643 VSS.n636 0.183357
R437 VSS.n817 VSS.n810 0.183357
R438 VSS.n819 VSS.n817 0.183357
R439 VSS.n393 VSS.n392 0.183357
R440 VSS.n392 VSS.n385 0.183357
R441 VSS.n704 VSS.n697 0.183357
R442 VSS.n706 VSS.n704 0.183357
R443 VSS.n594 VSS.n593 0.183357
R444 VSS.n593 VSS.n586 0.183357
R445 VSS.n564 VSS.n557 0.183357
R446 VSS.n566 VSS.n564 0.183357
R447 VSS.n1007 VSS 0.107929
R448 VSS VSS.n1008 0.107929
R449 VSS.n503 VSS 0.107593
R450 VSS.n786 VSS 0.107593
R451 VSS.n289 VSS.n288 0.0919286
R452 VSS.n291 VSS.n290 0.0919286
R453 VSS.n838 VSS.n294 0.0919286
R454 VSS.n414 VSS.n413 0.0919286
R455 VSS.n416 VSS.n415 0.0919286
R456 VSS.n678 VSS.n419 0.0919286
R457 VSS.n101 VSS.n100 0.0919286
R458 VSS.n127 VSS.n126 0.0919286
R459 VSS.n547 VSS.n544 0.0919286
R460 VSS.n546 VSS.n545 0.0919286
R461 VSS.n527 VSS.n518 0.0919286
R462 VSS.n905 VSS.n904 0.0919286
R463 VSS.n926 VSS.n925 0.0919286
R464 VSS.n453 VSS.n452 0.024
R465 VSS.n506 VSS.n505 0.024
R466 VSS.n338 VSS.n337 0.024
R467 VSS.n744 VSS.n743 0.024
R468 VSS.n750 VSS.n749 0.024
R469 VSS.n789 VSS.n788 0.024
R470 VSS.n630 VSS.n629 0.0228214
R471 VSS.n805 VSS.n804 0.0228214
R472 VSS.n824 VSS.n823 0.0228214
R473 VSS.n399 VSS.n398 0.0228214
R474 VSS.n712 VSS.n711 0.0228214
R475 VSS.n693 VSS.n692 0.0228214
R476 VSS.n580 VSS.n579 0.0228214
R477 VSS.n572 VSS.n571 0.0228214
R478 VSS.n553 VSS.n552 0.0228214
R479 VSS.n143 VSS.n142 0.0228214
R480 VSS.n194 VSS.n193 0.0228214
R481 VSS.n650 VSS.n649 0.0210357
R482 VSS.n380 VSS.n379 0.0210357
R483 VSS.n600 VSS.n599 0.0210357
R484 VSS.n96 VSS.n95 0.0210357
R485 VSS.n121 VSS.n118 0.0210357
R486 VSS.n26 VSS.n25 0.0210357
R487 VSS.n900 VSS.n899 0.0210357
R488 VSS.n944 VSS.n943 0.0210357
R489 VSS.n949 VSS.n948 0.0210357
R490 VSS.n118 VSS.n117 0.0201429
R491 VSS.n160 VSS.n159 0.0201429
R492 VSS.n25 VSS.n24 0.0201429
R493 VSS.n944 VSS.n921 0.0201429
R494 VSS.n213 VSS.n212 0.0201429
R495 VSS.n949 VSS.n882 0.0201429
R496 VSS.n76 VSS.n75 0.01925
R497 VSS.n252 VSS.n251 0.01925
R498 VSS.n802 VSS.n295 0.0174643
R499 VSS.n803 VSS.n802 0.0174643
R500 VSS.n798 VSS.n760 0.0174643
R501 VSS.n798 VSS.n797 0.0174643
R502 VSS.n714 VSS.n713 0.0174643
R503 VSS.n716 VSS.n715 0.0174643
R504 VSS.n578 VSS.n577 0.0174643
R505 VSS.n577 VSS.n573 0.0174643
R506 VSS.n22 VSS.n21 0.0174643
R507 VSS.n515 VSS.n463 0.0174643
R508 VSS.n515 VSS.n514 0.0174643
R509 VSS.n880 VSS.n879 0.0174643
R510 VSS.n302 VSS.n301 0.0165714
R511 VSS.n773 VSS.n772 0.0165714
R512 VSS.n767 VSS.n766 0.0165714
R513 VSS.n404 VSS.n400 0.0165714
R514 VSS.n323 VSS.n322 0.0165714
R515 VSS.n329 VSS.n328 0.0165714
R516 VSS.n330 VSS.n329 0.0165714
R517 VSS.n349 VSS.n348 0.0165714
R518 VSS.n725 VSS.n724 0.0165714
R519 VSS.n23 VSS.n22 0.0165714
R520 VSS.n28 VSS.n27 0.0165714
R521 VSS.n30 VSS.n29 0.0165714
R522 VSS.n437 VSS.n436 0.0165714
R523 VSS.n476 VSS.n475 0.0165714
R524 VSS.n470 VSS.n469 0.0165714
R525 VSS.n881 VSS.n880 0.0165714
R526 VSS.n947 VSS.n946 0.0165714
R527 VSS.n308 VSS.n307 0.0156786
R528 VSS.n731 VSS.n730 0.0156786
R529 VSS.n56 VSS.n55 0.0156786
R530 VSS.n11 VSS.n10 0.0156786
R531 VSS.n12 VSS.n11 0.0156786
R532 VSS.n1000 VSS.n40 0.0156786
R533 VSS.n1000 VSS.n999 0.0156786
R534 VSS.n443 VSS.n442 0.0156786
R535 VSS.n272 VSS.n271 0.0156786
R536 VSS.n867 VSS.n861 0.0156786
R537 VSS.n867 VSS.n866 0.0156786
R538 VSS.n962 VSS.n247 0.0156786
R539 VSS.n963 VSS.n962 0.0156786
R540 VSS.n456 VSS.n455 0.0152714
R541 VSS.n509 VSS.n508 0.0152714
R542 VSS.n492 VSS.n491 0.0152714
R543 VSS.n489 VSS.n488 0.0152714
R544 VSS.n341 VSS.n340 0.0152714
R545 VSS.n741 VSS.n740 0.0152714
R546 VSS.n753 VSS.n752 0.0152714
R547 VSS.n792 VSS.n791 0.0152714
R548 VSS.n874 VSS.n873 0.0152714
R549 VSS.n952 VSS.n951 0.0152714
R550 VSS.n19 VSS.n18 0.0147857
R551 VSS.n34 VSS.n33 0.0147857
R552 VSS.n877 VSS.n876 0.0147857
R553 VSS.n241 VSS.n240 0.0147857
R554 VSS.n169 VSS.n168 0.0138929
R555 VSS.n234 VSS.n233 0.0138929
R556 VSS.n499 VSS.n498 0.0132571
R557 VSS.n496 VSS.n495 0.0132571
R558 VSS.n485 VSS.n1 0.0132571
R559 VSS.n1003 VSS.n1002 0.0132571
R560 VSS.n782 VSS.n248 0.0132571
R561 VSS.n870 VSS.n869 0.0132571
R562 VSS.n956 VSS.n955 0.0132571
R563 VSS.n960 VSS.n959 0.0132571
R564 VSS.n833 VSS.n832 0.013
R565 VSS.n836 VSS.n835 0.013
R566 VSS.n766 VSS.n765 0.013
R567 VSS.n360 VSS.n359 0.013
R568 VSS.n363 VSS.n362 0.013
R569 VSS.n322 VSS.n321 0.013
R570 VSS.n533 VSS.n532 0.013
R571 VSS.n530 VSS.n529 0.013
R572 VSS.n469 VSS.n468 0.013
R573 VSS.n670 VSS.n669 0.0121071
R574 VSS.n667 VSS.n666 0.0121071
R575 VSS.n301 VSS.n300 0.0121071
R576 VSS.n769 VSS.n768 0.0121071
R577 VSS.n377 VSS.n376 0.0121071
R578 VSS.n684 VSS.n683 0.0121071
R579 VSS.n681 VSS.n680 0.0121071
R580 VSS.n325 VSS.n324 0.0121071
R581 VSS.n724 VSS.n723 0.0121071
R582 VSS.n619 VSS.n618 0.0121071
R583 VSS.n616 VSS.n615 0.0121071
R584 VSS.n55 VSS.n54 0.0121071
R585 VSS.n436 VSS.n435 0.0121071
R586 VSS.n472 VSS.n471 0.0121071
R587 VSS.n273 VSS.n272 0.0121071
R588 VSS.n666 VSS.n665 0.0112143
R589 VSS.n663 VSS.n652 0.0112143
R590 VSS.n827 VSS.n826 0.0112143
R591 VSS.n304 VSS.n303 0.0112143
R592 VSS.n685 VSS.n684 0.0112143
R593 VSS.n727 VSS.n726 0.0112143
R594 VSS.n615 VSS.n614 0.0112143
R595 VSS.n612 VSS.n602 0.0112143
R596 VSS.n550 VSS.n549 0.0112143
R597 VSS.n99 VSS.n98 0.0112143
R598 VSS.n140 VSS.n139 0.0112143
R599 VSS.n158 VSS.n157 0.0112143
R600 VSS.n170 VSS.n169 0.0112143
R601 VSS.n39 VSS.n38 0.0112143
R602 VSS.n439 VSS.n438 0.0112143
R603 VSS.n903 VSS.n902 0.0112143
R604 VSS.n923 VSS.n922 0.0112143
R605 VSS.n211 VSS.n210 0.0112143
R606 VSS.n235 VSS.n234 0.0112143
R607 VSS.n246 VSS.n245 0.0112143
R608 VSS.n664 VSS.n663 0.0103214
R609 VSS.n651 VSS.n650 0.0103214
R610 VSS.n632 VSS.n631 0.0103214
R611 VSS.n807 VSS.n806 0.0103214
R612 VSS.n832 VSS.n831 0.0103214
R613 VSS.n303 VSS.n302 0.0103214
R614 VSS.n313 VSS.n312 0.0103214
R615 VSS.n759 VSS.n758 0.0103214
R616 VSS.n778 VSS.n777 0.0103214
R617 VSS.n775 VSS.n774 0.0103214
R618 VSS.n364 VSS.n363 0.0103214
R619 VSS.n397 VSS.n396 0.0103214
R620 VSS.n710 VSS.n709 0.0103214
R621 VSS.n692 VSS.n691 0.0103214
R622 VSS.n690 VSS.n689 0.0103214
R623 VSS.n688 VSS.n687 0.0103214
R624 VSS.n333 VSS.n332 0.0103214
R625 VSS.n718 VSS.n717 0.0103214
R626 VSS.n736 VSS.n735 0.0103214
R627 VSS.n726 VSS.n725 0.0103214
R628 VSS.n613 VSS.n612 0.0103214
R629 VSS.n601 VSS.n600 0.0103214
R630 VSS.n582 VSS.n581 0.0103214
R631 VSS.n570 VSS.n569 0.0103214
R632 VSS.n534 VSS.n533 0.0103214
R633 VSS.n72 VSS.n59 0.0103214
R634 VSS.n75 VSS.n74 0.0103214
R635 VSS.n78 VSS.n77 0.0103214
R636 VSS.n9 VSS.n8 0.0103214
R637 VSS.n14 VSS.n13 0.0103214
R638 VSS.n438 VSS.n437 0.0103214
R639 VSS.n448 VSS.n447 0.0103214
R640 VSS.n462 VSS.n461 0.0103214
R641 VSS.n481 VSS.n480 0.0103214
R642 VSS.n478 VSS.n477 0.0103214
R643 VSS.n268 VSS.n267 0.0103214
R644 VSS.n253 VSS.n252 0.0103214
R645 VSS.n250 VSS.n249 0.0103214
R646 VSS.n860 VSS.n859 0.0103214
R647 VSS.n865 VSS.n864 0.0103214
R648 VSS.n491 VSS.n490 0.00956429
R649 VSS.n490 VSS.n489 0.00956429
R650 VSS.n950 VSS.n874 0.00956429
R651 VSS.n951 VSS.n950 0.00956429
R652 VSS.n668 VSS.n667 0.00942857
R653 VSS.n825 VSS.n824 0.00942857
R654 VSS.n829 VSS.n828 0.00942857
R655 VSS.n300 VSS.n299 0.00942857
R656 VSS.n310 VSS.n309 0.00942857
R657 VSS.n796 VSS.n795 0.00942857
R658 VSS.n768 VSS.n767 0.00942857
R659 VSS.n376 VSS.n365 0.00942857
R660 VSS.n379 VSS.n378 0.00942857
R661 VSS.n683 VSS.n682 0.00942857
R662 VSS.n324 VSS.n323 0.00942857
R663 VSS.n347 VSS.n346 0.00942857
R664 VSS.n733 VSS.n732 0.00942857
R665 VSS.n723 VSS.n722 0.00942857
R666 VSS.n617 VSS.n616 0.00942857
R667 VSS.n552 VSS.n551 0.00942857
R668 VSS.n548 VSS.n536 0.00942857
R669 VSS.n112 VSS.n111 0.00942857
R670 VSS.n117 VSS.n113 0.00942857
R671 VSS.n124 VSS.n123 0.00942857
R672 VSS.n161 VSS.n160 0.00942857
R673 VSS.n164 VSS.n163 0.00942857
R674 VSS.n998 VSS.n997 0.00942857
R675 VSS.n435 VSS.n434 0.00942857
R676 VSS.n445 VSS.n444 0.00942857
R677 VSS.n513 VSS.n512 0.00942857
R678 VSS.n471 VSS.n470 0.00942857
R679 VSS.n916 VSS.n915 0.00942857
R680 VSS.n921 VSS.n917 0.00942857
R681 VSS.n939 VSS.n938 0.00942857
R682 VSS.n214 VSS.n213 0.00942857
R683 VSS.n229 VSS.n228 0.00942857
R684 VSS.n965 VSS.n964 0.00942857
R685 VSS.n834 VSS.n833 0.00853571
R686 VSS.n765 VSS.n764 0.00853571
R687 VSS.n762 VSS.n761 0.00853571
R688 VSS.n362 VSS.n361 0.00853571
R689 VSS.n382 VSS.n381 0.00853571
R690 VSS.n318 VSS.n317 0.00853571
R691 VSS.n321 VSS.n320 0.00853571
R692 VSS.n332 VSS.n331 0.00853571
R693 VSS.n532 VSS.n531 0.00853571
R694 VSS.n95 VSS.n94 0.00853571
R695 VSS.n122 VSS.n121 0.00853571
R696 VSS.n154 VSS.n144 0.00853571
R697 VSS.n5 VSS.n4 0.00853571
R698 VSS.n18 VSS.n17 0.00853571
R699 VSS.n20 VSS.n19 0.00853571
R700 VSS.n35 VSS.n34 0.00853571
R701 VSS.n36 VSS.n35 0.00853571
R702 VSS.n994 VSS.n993 0.00853571
R703 VSS.n993 VSS.n992 0.00853571
R704 VSS.n991 VSS.n990 0.00853571
R705 VSS.n468 VSS.n467 0.00853571
R706 VSS.n465 VSS.n464 0.00853571
R707 VSS.n899 VSS.n898 0.00853571
R708 VSS.n943 VSS.n940 0.00853571
R709 VSS.n207 VSS.n195 0.00853571
R710 VSS.n853 VSS.n852 0.00853571
R711 VSS.n856 VSS.n855 0.00853571
R712 VSS.n876 VSS.n875 0.00853571
R713 VSS.n878 VSS.n877 0.00853571
R714 VSS.n242 VSS.n241 0.00853571
R715 VSS.n243 VSS.n242 0.00853571