* SPICE3 file created from dac_top.ext - technology: sky130A

.subckt dac_top VDDA VSSA VCCD VSSD VREFH Din0[0] Din0[1] Din0[2] Din0[3] Din0[4]
+ Din0[5] Din0[6] Din0[7] VOUT0 Din1[0] Din1[1] Din1[2] Din1[3] Din1[4] Din1[5] Din1[6]
+ Din1[7] VOUT1 Din2[0] Din2[1] Din2[2] Din2[3] Din2[4] Din2[5] Din2[6] Din2[7] VOUT2
+ Din3[0] Din3[1] Din3[2] Din3[3] Din3[4] Din3[5] Din3[6] Din3[7] VOUT3
X0 4x8_bit_dac_0/8_bit_dac_tx_buffer_0[0]/8_bit_dac_0/7_bit_dac_0[0]/6_bit_dac_0[0]/VOUT 4x8_bit_dac_0/8_bit_dac_tx_buffer_0[0]/8_bit_dac_0/D5_BUF 4x8_bit_dac_0/8_bit_dac_tx_buffer_0[0]/8_bit_dac_0/7_bit_dac_0[0]/6_bit_dac_0[0]/5_bit_dac_0[0]/VOUT VSSA sky130_fd_pr__nfet_g5v0d10v5 ad=0.145 pd=1.58 as=0.145 ps=1.58 w=0.5 l=0.5
X1 4x8_bit_dac_0/8_bit_dac_tx_buffer_0[0]/8_bit_dac_0/7_bit_dac_0[0]/6_bit_dac_0[0]/switch_n_3v3_0/DX_ 4x8_bit_dac_0/8_bit_dac_tx_buffer_0[0]/8_bit_dac_0/7_bit_dac_0[0]/switch_n_3v3_1/D5 VDDA VDDA sky130_fd_pr__pfet_g5v0d10v5 ad=0.29 pd=2.58 as=0.29 ps=2.58 w=1 l=0.5
X2 4x8_bit_dac_0/8_bit_dac_tx_buffer_0[0]/8_bit_dac_0/D5_BUF 4x8_bit_dac_0/8_bit_dac_tx_buffer_0[0]/8_bit_dac_0/7_bit_dac_0[0]/6_bit_dac_0[0]/switch_n_3v3_0/DX_ VDDA VDDA sky130_fd_pr__pfet_g5v0d10v5 ad=0.29 pd=2.58 as=0.29 ps=2.58 w=1 l=0.5
X3 4x8_bit_dac_0/8_bit_dac_tx_buffer_0[0]/8_bit_dac_0/7_bit_dac_0[0]/6_bit_dac_0[0]/VOUT 4x8_bit_dac_0/8_bit_dac_tx_buffer_0[0]/8_bit_dac_0/D5_BUF 4x8_bit_dac_0/8_bit_dac_tx_buffer_0[0]/8_bit_dac_0/7_bit_dac_0[0]/6_bit_dac_0[0]/5_bit_dac_0[1]/VOUT VDDA sky130_fd_pr__pfet_g5v0d10v5 ad=0.29 pd=2.58 as=0.29 ps=2.58 w=1 l=0.5
X4 4x8_bit_dac_0/8_bit_dac_tx_buffer_0[0]/8_bit_dac_0/7_bit_dac_0[0]/6_bit_dac_0[0]/switch_n_3v3_0/DX_ 4x8_bit_dac_0/8_bit_dac_tx_buffer_0[0]/8_bit_dac_0/7_bit_dac_0[0]/switch_n_3v3_1/D5 VSSA VSSA sky130_fd_pr__nfet_g5v0d10v5 ad=0.145 pd=1.58 as=0.145 ps=1.58 w=0.5 l=0.5
X5 4x8_bit_dac_0/8_bit_dac_tx_buffer_0[0]/8_bit_dac_0/7_bit_dac_0[0]/6_bit_dac_0[0]/5_bit_dac_0[1]/VOUT 4x8_bit_dac_0/8_bit_dac_tx_buffer_0[0]/8_bit_dac_0/7_bit_dac_0[0]/6_bit_dac_0[0]/switch_n_3v3_0/DX_ 4x8_bit_dac_0/8_bit_dac_tx_buffer_0[0]/8_bit_dac_0/7_bit_dac_0[0]/6_bit_dac_0[0]/VOUT VSSA sky130_fd_pr__nfet_g5v0d10v5 ad=0.145 pd=1.58 as=0.145 ps=1.58 w=0.5 l=0.5
X6 4x8_bit_dac_0/8_bit_dac_tx_buffer_0[0]/8_bit_dac_0/D5_BUF 4x8_bit_dac_0/8_bit_dac_tx_buffer_0[0]/8_bit_dac_0/7_bit_dac_0[0]/6_bit_dac_0[0]/switch_n_3v3_0/DX_ VSSA VSSA sky130_fd_pr__nfet_g5v0d10v5 ad=0.145 pd=1.58 as=0.145 ps=1.58 w=0.5 l=0.5
X7 4x8_bit_dac_0/8_bit_dac_tx_buffer_0[0]/8_bit_dac_0/7_bit_dac_0[0]/6_bit_dac_0[0]/5_bit_dac_0[0]/VOUT 4x8_bit_dac_0/8_bit_dac_tx_buffer_0[0]/8_bit_dac_0/7_bit_dac_0[0]/6_bit_dac_0[0]/switch_n_3v3_0/DX_ 4x8_bit_dac_0/8_bit_dac_tx_buffer_0[0]/8_bit_dac_0/7_bit_dac_0[0]/6_bit_dac_0[0]/VOUT VDDA sky130_fd_pr__pfet_g5v0d10v5 ad=0.29 pd=2.58 as=0.29 ps=2.58 w=1 l=0.5
X8 4x8_bit_dac_0/8_bit_dac_tx_buffer_0[0]/8_bit_dac_0/7_bit_dac_0[0]/6_bit_dac_0[0]/5_bit_dac_0[0]/4_bit_dac_0[0]/3_bit_dac_0[0]/2_bit_dac_0[0]/VOUT 4x8_bit_dac_0/8_bit_dac_tx_buffer_0[0]/8_bit_dac_0/D1_BUF 4x8_bit_dac_0/8_bit_dac_tx_buffer_0[0]/8_bit_dac_0/7_bit_dac_0[0]/6_bit_dac_0[0]/5_bit_dac_0[0]/4_bit_dac_0[0]/3_bit_dac_0[0]/2_bit_dac_0[0]/switch2n_3v3_0/VOUTH VSSA sky130_fd_pr__nfet_g5v0d10v5 ad=0.145 pd=1.58 as=0.145 ps=1.58 w=0.5 l=0.5
X9 4x8_bit_dac_0/8_bit_dac_tx_buffer_0[0]/8_bit_dac_0/7_bit_dac_0[0]/6_bit_dac_0[0]/5_bit_dac_0[0]/4_bit_dac_0[0]/3_bit_dac_0[0]/2_bit_dac_0[0]/switch_n_3v3_v2_0/DX_ 4x8_bit_dac_0/8_bit_dac_tx_buffer_0[0]/8_bit_dac_0/7_bit_dac_0[0]/6_bit_dac_0[0]/5_bit_dac_0[0]/4_bit_dac_0[0]/3_bit_dac_0[0]/2_bit_dac_0[0]/D1 VDDA VDDA sky130_fd_pr__pfet_g5v0d10v5 ad=0.29 pd=2.58 as=0.29 ps=2.58 w=1 l=0.5
X10 4x8_bit_dac_0/8_bit_dac_tx_buffer_0[0]/8_bit_dac_0/D1_BUF 4x8_bit_dac_0/8_bit_dac_tx_buffer_0[0]/8_bit_dac_0/7_bit_dac_0[0]/6_bit_dac_0[0]/5_bit_dac_0[0]/4_bit_dac_0[0]/3_bit_dac_0[0]/2_bit_dac_0[0]/switch_n_3v3_v2_0/DX_ VDDA VDDA sky130_fd_pr__pfet_g5v0d10v5 ad=0.29 pd=2.58 as=0.29 ps=2.58 w=1 l=0.5
X11 4x8_bit_dac_0/8_bit_dac_tx_buffer_0[0]/8_bit_dac_0/7_bit_dac_0[0]/6_bit_dac_0[0]/5_bit_dac_0[0]/4_bit_dac_0[0]/3_bit_dac_0[0]/2_bit_dac_0[0]/VOUT 4x8_bit_dac_0/8_bit_dac_tx_buffer_0[0]/8_bit_dac_0/D1_BUF 4x8_bit_dac_0/8_bit_dac_tx_buffer_0[0]/8_bit_dac_0/7_bit_dac_0[0]/6_bit_dac_0[0]/5_bit_dac_0[0]/4_bit_dac_0[0]/3_bit_dac_0[0]/2_bit_dac_0[0]/switch2n_3v3_0/VOUTL VDDA sky130_fd_pr__pfet_g5v0d10v5 ad=0.29 pd=2.58 as=0.29 ps=2.58 w=1 l=0.5
X12 4x8_bit_dac_0/8_bit_dac_tx_buffer_0[0]/8_bit_dac_0/7_bit_dac_0[0]/6_bit_dac_0[0]/5_bit_dac_0[0]/4_bit_dac_0[0]/3_bit_dac_0[0]/2_bit_dac_0[0]/switch_n_3v3_v2_0/DX_ 4x8_bit_dac_0/8_bit_dac_tx_buffer_0[0]/8_bit_dac_0/7_bit_dac_0[0]/6_bit_dac_0[0]/5_bit_dac_0[0]/4_bit_dac_0[0]/3_bit_dac_0[0]/2_bit_dac_0[0]/D1 VSSA VSSA sky130_fd_pr__nfet_g5v0d10v5 ad=0.145 pd=1.58 as=0.145 ps=1.58 w=0.5 l=0.5
X13 4x8_bit_dac_0/8_bit_dac_tx_buffer_0[0]/8_bit_dac_0/7_bit_dac_0[0]/6_bit_dac_0[0]/5_bit_dac_0[0]/4_bit_dac_0[0]/3_bit_dac_0[0]/2_bit_dac_0[0]/switch2n_3v3_0/VOUTL 4x8_bit_dac_0/8_bit_dac_tx_buffer_0[0]/8_bit_dac_0/7_bit_dac_0[0]/6_bit_dac_0[0]/5_bit_dac_0[0]/4_bit_dac_0[0]/3_bit_dac_0[0]/2_bit_dac_0[0]/switch_n_3v3_v2_0/DX_ 4x8_bit_dac_0/8_bit_dac_tx_buffer_0[0]/8_bit_dac_0/7_bit_dac_0[0]/6_bit_dac_0[0]/5_bit_dac_0[0]/4_bit_dac_0[0]/3_bit_dac_0[0]/2_bit_dac_0[0]/VOUT VSSA sky130_fd_pr__nfet_g5v0d10v5 ad=0.145 pd=1.58 as=0.145 ps=1.58 w=0.5 l=0.5
X14 4x8_bit_dac_0/8_bit_dac_tx_buffer_0[0]/8_bit_dac_0/D1_BUF 4x8_bit_dac_0/8_bit_dac_tx_buffer_0[0]/8_bit_dac_0/7_bit_dac_0[0]/6_bit_dac_0[0]/5_bit_dac_0[0]/4_bit_dac_0[0]/3_bit_dac_0[0]/2_bit_dac_0[0]/switch_n_3v3_v2_0/DX_ VSSA VSSA sky130_fd_pr__nfet_g5v0d10v5 ad=0.145 pd=1.58 as=0.145 ps=1.58 w=0.5 l=0.5
X15 4x8_bit_dac_0/8_bit_dac_tx_buffer_0[0]/8_bit_dac_0/7_bit_dac_0[0]/6_bit_dac_0[0]/5_bit_dac_0[0]/4_bit_dac_0[0]/3_bit_dac_0[0]/2_bit_dac_0[0]/switch2n_3v3_0/VOUTH 4x8_bit_dac_0/8_bit_dac_tx_buffer_0[0]/8_bit_dac_0/7_bit_dac_0[0]/6_bit_dac_0[0]/5_bit_dac_0[0]/4_bit_dac_0[0]/3_bit_dac_0[0]/2_bit_dac_0[0]/switch_n_3v3_v2_0/DX_ 4x8_bit_dac_0/8_bit_dac_tx_buffer_0[0]/8_bit_dac_0/7_bit_dac_0[0]/6_bit_dac_0[0]/5_bit_dac_0[0]/4_bit_dac_0[0]/3_bit_dac_0[0]/2_bit_dac_0[0]/VOUT VDDA sky130_fd_pr__pfet_g5v0d10v5 ad=0.29 pd=2.58 as=0.29 ps=2.58 w=1 l=0.5
X16 4x8_bit_dac_0/8_bit_dac_tx_buffer_0[0]/8_bit_dac_0/7_bit_dac_0[0]/6_bit_dac_0[0]/5_bit_dac_0[0]/4_bit_dac_0[0]/3_bit_dac_0[0]/2_bit_dac_0[0]/switch2n_3v3_0/VOUTH 4x8_bit_dac_0/8_bit_dac_tx_buffer_0[0]/8_bit_dac_0/7_bit_dac_0[0]/6_bit_dac_0[0]/5_bit_dac_0[0]/4_bit_dac_0[0]/3_bit_dac_0[0]/2_bit_dac_0[0]/switch2n_3v3_0/a_n6524_n498# 4x8_bit_dac_0/8_bit_dac_tx_buffer_0[0]/8_bit_dac_0/7_bit_dac_0[0]/6_bit_dac_0[0]/5_bit_dac_0[0]/4_bit_dac_0[0]/3_bit_dac_0[0]/2_bit_dac_0[0]/switch2n_3v3_0/VREFH VDDA sky130_fd_pr__pfet_g5v0d10v5 ad=0.29 pd=2.58 as=0.29 ps=2.58 w=1 l=0.5
X17 4x8_bit_dac_0/8_bit_dac_tx_buffer_0[0]/8_bit_dac_0/7_bit_dac_0[0]/6_bit_dac_0[0]/5_bit_dac_0[0]/4_bit_dac_0[0]/3_bit_dac_0[0]/2_bit_dac_0[0]/switch2n_3v3_0/VREFH 4x8_bit_dac_0/8_bit_dac_tx_buffer_0[0]/8_bit_dac_0/D0_BUF 4x8_bit_dac_0/8_bit_dac_tx_buffer_0[0]/8_bit_dac_0/7_bit_dac_0[0]/6_bit_dac_0[0]/5_bit_dac_0[0]/4_bit_dac_0[0]/3_bit_dac_0[0]/2_bit_dac_0[0]/switch2n_3v3_0/VOUTH VSSA sky130_fd_pr__nfet_g5v0d10v5 ad=0.145 pd=1.58 as=0.145 ps=1.58 w=0.5 l=0.5
X18 4x8_bit_dac_0/8_bit_dac_tx_buffer_0[0]/8_bit_dac_0/7_bit_dac_0[0]/6_bit_dac_0[0]/5_bit_dac_0[0]/4_bit_dac_0[0]/3_bit_dac_0[0]/2_bit_dac_0[0]/switch2n_3v3_0/VREFH 4x8_bit_dac_0/8_bit_dac_tx_buffer_0[0]/8_bit_dac_0/7_bit_dac_0[0]/6_bit_dac_0[0]/5_bit_dac_0[0]/4_bit_dac_0[0]/3_bit_dac_0[0]/2_bit_dac_0[0]/switch2n_3v3_0/R_H VSSA sky130_fd_pr__res_generic_nd__hv w=0.42 l=2.1
X19 4x8_bit_dac_0/8_bit_dac_tx_buffer_0[0]/8_bit_dac_0/D0_BUF 4x8_bit_dac_0/8_bit_dac_tx_buffer_0[0]/8_bit_dac_0/7_bit_dac_0[0]/6_bit_dac_0[0]/5_bit_dac_0[0]/4_bit_dac_0[0]/3_bit_dac_0[0]/2_bit_dac_0[0]/switch2n_3v3_0/a_n6524_n498# VSSA VSSA sky130_fd_pr__nfet_g5v0d10v5 ad=0.145 pd=1.58 as=0.145 ps=1.58 w=0.5 l=0.5
X20 4x8_bit_dac_0/8_bit_dac_tx_buffer_0[0]/8_bit_dac_0/7_bit_dac_0[0]/6_bit_dac_0[0]/5_bit_dac_0[0]/4_bit_dac_0[0]/3_bit_dac_0[0]/2_bit_dac_0[1]/VREFH 4x8_bit_dac_0/8_bit_dac_tx_buffer_0[0]/8_bit_dac_0/D0_BUF 4x8_bit_dac_0/8_bit_dac_tx_buffer_0[0]/8_bit_dac_0/7_bit_dac_0[0]/6_bit_dac_0[0]/5_bit_dac_0[0]/4_bit_dac_0[0]/3_bit_dac_0[0]/2_bit_dac_0[0]/switch2n_3v3_0/VOUTL VDDA sky130_fd_pr__pfet_g5v0d10v5 ad=0.29 pd=2.58 as=0.29 ps=2.58 w=1 l=0.5
X21 4x8_bit_dac_0/8_bit_dac_tx_buffer_0[0]/8_bit_dac_0/7_bit_dac_0[0]/6_bit_dac_0[0]/5_bit_dac_0[0]/4_bit_dac_0[0]/3_bit_dac_0[0]/2_bit_dac_0[0]/switch2n_3v3_0/VREFH VREFH VSSA sky130_fd_pr__res_generic_nd__hv w=0.42 l=2.1
X22 4x8_bit_dac_0/8_bit_dac_tx_buffer_0[0]/8_bit_dac_0/7_bit_dac_0[0]/6_bit_dac_0[0]/5_bit_dac_0[0]/4_bit_dac_0[0]/3_bit_dac_0[0]/2_bit_dac_0[0]/switch2n_3v3_0/a_n6524_n498# 4x8_bit_dac_0/8_bit_dac_tx_buffer_0[0]/8_bit_dac_0/7_bit_dac_0[0]/6_bit_dac_0[0]/5_bit_dac_0[0]/4_bit_dac_0[0]/3_bit_dac_0[0]/2_bit_dac_0[0]/D0 VSSA VSSA sky130_fd_pr__nfet_g5v0d10v5 ad=0.145 pd=1.58 as=0.145 ps=1.58 w=0.5 l=0.5
X23 4x8_bit_dac_0/8_bit_dac_tx_buffer_0[0]/8_bit_dac_0/7_bit_dac_0[0]/6_bit_dac_0[0]/5_bit_dac_0[0]/4_bit_dac_0[0]/3_bit_dac_0[0]/2_bit_dac_0[0]/switch2n_3v3_0/VOUTL 4x8_bit_dac_0/8_bit_dac_tx_buffer_0[0]/8_bit_dac_0/7_bit_dac_0[0]/6_bit_dac_0[0]/5_bit_dac_0[0]/4_bit_dac_0[0]/3_bit_dac_0[0]/2_bit_dac_0[0]/switch2n_3v3_0/a_n6524_n498# 4x8_bit_dac_0/8_bit_dac_tx_buffer_0[0]/8_bit_dac_0/7_bit_dac_0[0]/6_bit_dac_0[0]/5_bit_dac_0[0]/4_bit_dac_0[0]/3_bit_dac_0[0]/2_bit_dac_0[1]/VREFH VSSA sky130_fd_pr__nfet_g5v0d10v5 ad=0.145 pd=1.58 as=0.145 ps=1.58 w=0.5 l=0.5
X24 4x8_bit_dac_0/8_bit_dac_tx_buffer_0[0]/8_bit_dac_0/7_bit_dac_0[0]/6_bit_dac_0[0]/5_bit_dac_0[0]/4_bit_dac_0[0]/3_bit_dac_0[0]/2_bit_dac_0[0]/switch2n_3v3_0/VOUTH 4x8_bit_dac_0/8_bit_dac_tx_buffer_0[0]/8_bit_dac_0/7_bit_dac_0[0]/6_bit_dac_0[0]/5_bit_dac_0[0]/4_bit_dac_0[0]/3_bit_dac_0[0]/2_bit_dac_0[0]/switch2n_3v3_0/a_n6524_n498# 4x8_bit_dac_0/8_bit_dac_tx_buffer_0[0]/8_bit_dac_0/7_bit_dac_0[0]/6_bit_dac_0[0]/5_bit_dac_0[0]/4_bit_dac_0[0]/3_bit_dac_0[0]/2_bit_dac_0[0]/switch2n_3v3_0/R_H VSSA sky130_fd_pr__nfet_g5v0d10v5 ad=0.145 pd=1.58 as=0.145 ps=1.58 w=0.5 l=0.5
X25 4x8_bit_dac_0/8_bit_dac_tx_buffer_0[0]/8_bit_dac_0/7_bit_dac_0[0]/6_bit_dac_0[0]/5_bit_dac_0[0]/4_bit_dac_0[0]/3_bit_dac_0[0]/2_bit_dac_0[0]/switch2n_3v3_0/R_H 4x8_bit_dac_0/8_bit_dac_tx_buffer_0[0]/8_bit_dac_0/D0_BUF 4x8_bit_dac_0/8_bit_dac_tx_buffer_0[0]/8_bit_dac_0/7_bit_dac_0[0]/6_bit_dac_0[0]/5_bit_dac_0[0]/4_bit_dac_0[0]/3_bit_dac_0[0]/2_bit_dac_0[0]/switch2n_3v3_0/VOUTH VDDA sky130_fd_pr__pfet_g5v0d10v5 ad=0.29 pd=2.58 as=0.29 ps=2.58 w=1 l=0.5
X26 4x8_bit_dac_0/8_bit_dac_tx_buffer_0[0]/8_bit_dac_0/7_bit_dac_0[0]/6_bit_dac_0[0]/5_bit_dac_0[0]/4_bit_dac_0[0]/3_bit_dac_0[0]/2_bit_dac_0[0]/switch2n_3v3_0/R_H 4x8_bit_dac_0/8_bit_dac_tx_buffer_0[0]/8_bit_dac_0/7_bit_dac_0[0]/6_bit_dac_0[0]/5_bit_dac_0[0]/4_bit_dac_0[0]/3_bit_dac_0[0]/2_bit_dac_0[0]/switch2n_3v3_0/R_L VSSA sky130_fd_pr__res_generic_nd__hv w=0.42 l=2.1
X27 4x8_bit_dac_0/8_bit_dac_tx_buffer_0[0]/8_bit_dac_0/7_bit_dac_0[0]/6_bit_dac_0[0]/5_bit_dac_0[0]/4_bit_dac_0[0]/3_bit_dac_0[0]/2_bit_dac_0[0]/switch2n_3v3_0/R_L 4x8_bit_dac_0/8_bit_dac_tx_buffer_0[0]/8_bit_dac_0/7_bit_dac_0[0]/6_bit_dac_0[0]/5_bit_dac_0[0]/4_bit_dac_0[0]/3_bit_dac_0[0]/2_bit_dac_0[1]/VREFH VSSA sky130_fd_pr__res_generic_nd__hv w=0.42 l=2.1
X28 4x8_bit_dac_0/8_bit_dac_tx_buffer_0[0]/8_bit_dac_0/7_bit_dac_0[0]/6_bit_dac_0[0]/5_bit_dac_0[0]/4_bit_dac_0[0]/3_bit_dac_0[0]/2_bit_dac_0[0]/switch2n_3v3_0/R_L 4x8_bit_dac_0/8_bit_dac_tx_buffer_0[0]/8_bit_dac_0/D0_BUF 4x8_bit_dac_0/8_bit_dac_tx_buffer_0[0]/8_bit_dac_0/7_bit_dac_0[0]/6_bit_dac_0[0]/5_bit_dac_0[0]/4_bit_dac_0[0]/3_bit_dac_0[0]/2_bit_dac_0[0]/switch2n_3v3_0/VOUTL VSSA sky130_fd_pr__nfet_g5v0d10v5 ad=0.145 pd=1.58 as=0.145 ps=1.58 w=0.5 l=0.5
X29 4x8_bit_dac_0/8_bit_dac_tx_buffer_0[0]/8_bit_dac_0/D0_BUF 4x8_bit_dac_0/8_bit_dac_tx_buffer_0[0]/8_bit_dac_0/7_bit_dac_0[0]/6_bit_dac_0[0]/5_bit_dac_0[0]/4_bit_dac_0[0]/3_bit_dac_0[0]/2_bit_dac_0[0]/switch2n_3v3_0/a_n6524_n498# VDDA VDDA sky130_fd_pr__pfet_g5v0d10v5 ad=0.29 pd=2.58 as=0.29 ps=2.58 w=1 l=0.5
X30 4x8_bit_dac_0/8_bit_dac_tx_buffer_0[0]/8_bit_dac_0/7_bit_dac_0[0]/6_bit_dac_0[0]/5_bit_dac_0[0]/4_bit_dac_0[0]/3_bit_dac_0[0]/2_bit_dac_0[0]/switch2n_3v3_0/a_n6524_n498# 4x8_bit_dac_0/8_bit_dac_tx_buffer_0[0]/8_bit_dac_0/7_bit_dac_0[0]/6_bit_dac_0[0]/5_bit_dac_0[0]/4_bit_dac_0[0]/3_bit_dac_0[0]/2_bit_dac_0[0]/D0 VDDA VDDA sky130_fd_pr__pfet_g5v0d10v5 ad=0.29 pd=2.58 as=0.29 ps=2.58 w=1 l=0.5
X31 4x8_bit_dac_0/8_bit_dac_tx_buffer_0[0]/8_bit_dac_0/7_bit_dac_0[0]/6_bit_dac_0[0]/5_bit_dac_0[0]/4_bit_dac_0[0]/3_bit_dac_0[0]/2_bit_dac_0[0]/switch2n_3v3_0/VOUTL 4x8_bit_dac_0/8_bit_dac_tx_buffer_0[0]/8_bit_dac_0/7_bit_dac_0[0]/6_bit_dac_0[0]/5_bit_dac_0[0]/4_bit_dac_0[0]/3_bit_dac_0[0]/2_bit_dac_0[0]/switch2n_3v3_0/a_n6524_n498# 4x8_bit_dac_0/8_bit_dac_tx_buffer_0[0]/8_bit_dac_0/7_bit_dac_0[0]/6_bit_dac_0[0]/5_bit_dac_0[0]/4_bit_dac_0[0]/3_bit_dac_0[0]/2_bit_dac_0[0]/switch2n_3v3_0/R_L VDDA sky130_fd_pr__pfet_g5v0d10v5 ad=0.29 pd=2.58 as=0.29 ps=2.58 w=1 l=0.5
X32 4x8_bit_dac_0/8_bit_dac_tx_buffer_0[0]/8_bit_dac_0/7_bit_dac_0[0]/6_bit_dac_0[0]/5_bit_dac_0[0]/4_bit_dac_0[0]/3_bit_dac_0[0]/2_bit_dac_0[1]/VOUT 4x8_bit_dac_0/8_bit_dac_tx_buffer_0[0]/8_bit_dac_0/7_bit_dac_0[0]/6_bit_dac_0[0]/5_bit_dac_0[0]/4_bit_dac_0[0]/3_bit_dac_0[0]/2_bit_dac_0[0]/D1 4x8_bit_dac_0/8_bit_dac_tx_buffer_0[0]/8_bit_dac_0/7_bit_dac_0[0]/6_bit_dac_0[0]/5_bit_dac_0[0]/4_bit_dac_0[0]/3_bit_dac_0[0]/2_bit_dac_0[1]/switch2n_3v3_0/VOUTH VSSA sky130_fd_pr__nfet_g5v0d10v5 ad=0.435 pd=4.74 as=0.435 ps=4.74 w=0.5 l=0.5
X33 4x8_bit_dac_0/8_bit_dac_tx_buffer_0[0]/8_bit_dac_0/7_bit_dac_0[0]/6_bit_dac_0[0]/5_bit_dac_0[0]/4_bit_dac_0[0]/3_bit_dac_0[0]/2_bit_dac_0[1]/switch_n_3v3_v2_0/DX_ 4x8_bit_dac_0/8_bit_dac_tx_buffer_0[0]/8_bit_dac_0/7_bit_dac_0[0]/6_bit_dac_0[0]/5_bit_dac_0[0]/4_bit_dac_0[0]/3_bit_dac_0[0]/D1 VDDA VDDA sky130_fd_pr__pfet_g5v0d10v5 ad=0.29 pd=2.58 as=506 ps=4.43k w=1 l=0.5
X34 4x8_bit_dac_0/8_bit_dac_tx_buffer_0[0]/8_bit_dac_0/7_bit_dac_0[0]/6_bit_dac_0[0]/5_bit_dac_0[0]/4_bit_dac_0[0]/3_bit_dac_0[0]/2_bit_dac_0[0]/D1 4x8_bit_dac_0/8_bit_dac_tx_buffer_0[0]/8_bit_dac_0/7_bit_dac_0[0]/6_bit_dac_0[0]/5_bit_dac_0[0]/4_bit_dac_0[0]/3_bit_dac_0[0]/2_bit_dac_0[1]/switch_n_3v3_v2_0/DX_ VDDA VDDA sky130_fd_pr__pfet_g5v0d10v5 ad=0.29 pd=2.58 as=0 ps=0 w=1 l=0.5
X35 4x8_bit_dac_0/8_bit_dac_tx_buffer_0[0]/8_bit_dac_0/7_bit_dac_0[0]/6_bit_dac_0[0]/5_bit_dac_0[0]/4_bit_dac_0[0]/3_bit_dac_0[0]/2_bit_dac_0[1]/VOUT 4x8_bit_dac_0/8_bit_dac_tx_buffer_0[0]/8_bit_dac_0/7_bit_dac_0[0]/6_bit_dac_0[0]/5_bit_dac_0[0]/4_bit_dac_0[0]/3_bit_dac_0[0]/2_bit_dac_0[0]/D1 4x8_bit_dac_0/8_bit_dac_tx_buffer_0[0]/8_bit_dac_0/7_bit_dac_0[0]/6_bit_dac_0[0]/5_bit_dac_0[0]/4_bit_dac_0[0]/3_bit_dac_0[0]/2_bit_dac_0[1]/switch2n_3v3_0/VOUTL VDDA sky130_fd_pr__pfet_g5v0d10v5 ad=0.87 pd=7.74 as=0.87 ps=7.74 w=1 l=0.5
X36 4x8_bit_dac_0/8_bit_dac_tx_buffer_0[0]/8_bit_dac_0/7_bit_dac_0[0]/6_bit_dac_0[0]/5_bit_dac_0[0]/4_bit_dac_0[0]/3_bit_dac_0[0]/2_bit_dac_0[1]/switch_n_3v3_v2_0/DX_ 4x8_bit_dac_0/8_bit_dac_tx_buffer_0[0]/8_bit_dac_0/7_bit_dac_0[0]/6_bit_dac_0[0]/5_bit_dac_0[0]/4_bit_dac_0[0]/3_bit_dac_0[0]/D1 VSSA VSSA sky130_fd_pr__nfet_g5v0d10v5 ad=0.145 pd=1.58 as=250 ps=2.63k w=0.5 l=0.5
X37 4x8_bit_dac_0/8_bit_dac_tx_buffer_0[0]/8_bit_dac_0/7_bit_dac_0[0]/6_bit_dac_0[0]/5_bit_dac_0[0]/4_bit_dac_0[0]/3_bit_dac_0[0]/2_bit_dac_0[1]/switch2n_3v3_0/VOUTL 4x8_bit_dac_0/8_bit_dac_tx_buffer_0[0]/8_bit_dac_0/7_bit_dac_0[0]/6_bit_dac_0[0]/5_bit_dac_0[0]/4_bit_dac_0[0]/3_bit_dac_0[0]/2_bit_dac_0[1]/switch_n_3v3_v2_0/DX_ 4x8_bit_dac_0/8_bit_dac_tx_buffer_0[0]/8_bit_dac_0/7_bit_dac_0[0]/6_bit_dac_0[0]/5_bit_dac_0[0]/4_bit_dac_0[0]/3_bit_dac_0[0]/2_bit_dac_0[1]/VOUT VSSA sky130_fd_pr__nfet_g5v0d10v5 ad=0.435 pd=4.74 as=0 ps=0 w=0.5 l=0.5
X38 4x8_bit_dac_0/8_bit_dac_tx_buffer_0[0]/8_bit_dac_0/7_bit_dac_0[0]/6_bit_dac_0[0]/5_bit_dac_0[0]/4_bit_dac_0[0]/3_bit_dac_0[0]/2_bit_dac_0[0]/D1 4x8_bit_dac_0/8_bit_dac_tx_buffer_0[0]/8_bit_dac_0/7_bit_dac_0[0]/6_bit_dac_0[0]/5_bit_dac_0[0]/4_bit_dac_0[0]/3_bit_dac_0[0]/2_bit_dac_0[1]/switch_n_3v3_v2_0/DX_ VSSA VSSA sky130_fd_pr__nfet_g5v0d10v5 ad=0.145 pd=1.58 as=0 ps=0 w=0.5 l=0.5
X39 4x8_bit_dac_0/8_bit_dac_tx_buffer_0[0]/8_bit_dac_0/7_bit_dac_0[0]/6_bit_dac_0[0]/5_bit_dac_0[0]/4_bit_dac_0[0]/3_bit_dac_0[0]/2_bit_dac_0[1]/switch2n_3v3_0/VOUTH 4x8_bit_dac_0/8_bit_dac_tx_buffer_0[0]/8_bit_dac_0/7_bit_dac_0[0]/6_bit_dac_0[0]/5_bit_dac_0[0]/4_bit_dac_0[0]/3_bit_dac_0[0]/2_bit_dac_0[1]/switch_n_3v3_v2_0/DX_ 4x8_bit_dac_0/8_bit_dac_tx_buffer_0[0]/8_bit_dac_0/7_bit_dac_0[0]/6_bit_dac_0[0]/5_bit_dac_0[0]/4_bit_dac_0[0]/3_bit_dac_0[0]/2_bit_dac_0[1]/VOUT VDDA sky130_fd_pr__pfet_g5v0d10v5 ad=0.87 pd=7.74 as=0 ps=0 w=1 l=0.5
X40 4x8_bit_dac_0/8_bit_dac_tx_buffer_0[0]/8_bit_dac_0/7_bit_dac_0[0]/6_bit_dac_0[0]/5_bit_dac_0[0]/4_bit_dac_0[0]/3_bit_dac_0[0]/2_bit_dac_0[1]/switch2n_3v3_0/VOUTH 4x8_bit_dac_0/8_bit_dac_tx_buffer_0[0]/8_bit_dac_0/7_bit_dac_0[0]/6_bit_dac_0[0]/5_bit_dac_0[0]/4_bit_dac_0[0]/3_bit_dac_0[0]/2_bit_dac_0[1]/switch2n_3v3_0/a_n6524_n498# 4x8_bit_dac_0/8_bit_dac_tx_buffer_0[0]/8_bit_dac_0/7_bit_dac_0[0]/6_bit_dac_0[0]/5_bit_dac_0[0]/4_bit_dac_0[0]/3_bit_dac_0[0]/2_bit_dac_0[1]/switch2n_3v3_0/VREFH VDDA sky130_fd_pr__pfet_g5v0d10v5 ad=0 pd=0 as=0.29 ps=2.58 w=1 l=0.5
X41 4x8_bit_dac_0/8_bit_dac_tx_buffer_0[0]/8_bit_dac_0/7_bit_dac_0[0]/6_bit_dac_0[0]/5_bit_dac_0[0]/4_bit_dac_0[0]/3_bit_dac_0[0]/2_bit_dac_0[1]/switch2n_3v3_0/VREFH 4x8_bit_dac_0/8_bit_dac_tx_buffer_0[0]/8_bit_dac_0/7_bit_dac_0[0]/6_bit_dac_0[0]/5_bit_dac_0[0]/4_bit_dac_0[0]/3_bit_dac_0[0]/2_bit_dac_0[0]/D0 4x8_bit_dac_0/8_bit_dac_tx_buffer_0[0]/8_bit_dac_0/7_bit_dac_0[0]/6_bit_dac_0[0]/5_bit_dac_0[0]/4_bit_dac_0[0]/3_bit_dac_0[0]/2_bit_dac_0[1]/switch2n_3v3_0/VOUTH VSSA sky130_fd_pr__nfet_g5v0d10v5 ad=0.578 pd=5.32 as=0 ps=0 w=0.5 l=0.5
X42 4x8_bit_dac_0/8_bit_dac_tx_buffer_0[0]/8_bit_dac_0/7_bit_dac_0[0]/6_bit_dac_0[0]/5_bit_dac_0[0]/4_bit_dac_0[0]/3_bit_dac_0[0]/2_bit_dac_0[1]/switch2n_3v3_0/VREFH 4x8_bit_dac_0/8_bit_dac_tx_buffer_0[0]/8_bit_dac_0/7_bit_dac_0[0]/6_bit_dac_0[0]/5_bit_dac_0[0]/4_bit_dac_0[0]/3_bit_dac_0[0]/2_bit_dac_0[1]/switch2n_3v3_0/R_H VSSA sky130_fd_pr__res_generic_nd__hv w=0.42 l=2.1
X43 4x8_bit_dac_0/8_bit_dac_tx_buffer_0[0]/8_bit_dac_0/7_bit_dac_0[0]/6_bit_dac_0[0]/5_bit_dac_0[0]/4_bit_dac_0[0]/3_bit_dac_0[0]/2_bit_dac_0[0]/D0 4x8_bit_dac_0/8_bit_dac_tx_buffer_0[0]/8_bit_dac_0/7_bit_dac_0[0]/6_bit_dac_0[0]/5_bit_dac_0[0]/4_bit_dac_0[0]/3_bit_dac_0[0]/2_bit_dac_0[1]/switch2n_3v3_0/a_n6524_n498# VSSA VSSA sky130_fd_pr__nfet_g5v0d10v5 ad=0.145 pd=1.58 as=0 ps=0 w=0.5 l=0.5
X44 4x8_bit_dac_0/8_bit_dac_tx_buffer_0[0]/8_bit_dac_0/7_bit_dac_0[0]/6_bit_dac_0[0]/5_bit_dac_0[0]/4_bit_dac_0[0]/3_bit_dac_0[1]/VREFH 4x8_bit_dac_0/8_bit_dac_tx_buffer_0[0]/8_bit_dac_0/7_bit_dac_0[0]/6_bit_dac_0[0]/5_bit_dac_0[0]/4_bit_dac_0[0]/3_bit_dac_0[0]/2_bit_dac_0[0]/D0 4x8_bit_dac_0/8_bit_dac_tx_buffer_0[0]/8_bit_dac_0/7_bit_dac_0[0]/6_bit_dac_0[0]/5_bit_dac_0[0]/4_bit_dac_0[0]/3_bit_dac_0[0]/2_bit_dac_0[1]/switch2n_3v3_0/VOUTL VDDA sky130_fd_pr__pfet_g5v0d10v5 ad=0.29 pd=2.58 as=0 ps=0 w=1 l=0.5
X45 4x8_bit_dac_0/8_bit_dac_tx_buffer_0[0]/8_bit_dac_0/7_bit_dac_0[0]/6_bit_dac_0[0]/5_bit_dac_0[0]/4_bit_dac_0[0]/3_bit_dac_0[0]/2_bit_dac_0[1]/switch2n_3v3_0/VREFH 4x8_bit_dac_0/8_bit_dac_tx_buffer_0[0]/8_bit_dac_0/7_bit_dac_0[0]/6_bit_dac_0[0]/5_bit_dac_0[0]/4_bit_dac_0[0]/3_bit_dac_0[0]/2_bit_dac_0[1]/VREFH VSSA sky130_fd_pr__res_generic_nd__hv w=0.42 l=2.1
X46 4x8_bit_dac_0/8_bit_dac_tx_buffer_0[0]/8_bit_dac_0/7_bit_dac_0[0]/6_bit_dac_0[0]/5_bit_dac_0[0]/4_bit_dac_0[0]/3_bit_dac_0[0]/2_bit_dac_0[1]/switch2n_3v3_0/a_n6524_n498# 4x8_bit_dac_0/8_bit_dac_tx_buffer_0[0]/8_bit_dac_0/7_bit_dac_0[0]/6_bit_dac_0[0]/5_bit_dac_0[0]/4_bit_dac_0[0]/3_bit_dac_0[0]/D0 VSSA VSSA sky130_fd_pr__nfet_g5v0d10v5 ad=0.145 pd=1.58 as=0 ps=0 w=0.5 l=0.5
X47 4x8_bit_dac_0/8_bit_dac_tx_buffer_0[0]/8_bit_dac_0/7_bit_dac_0[0]/6_bit_dac_0[0]/5_bit_dac_0[0]/4_bit_dac_0[0]/3_bit_dac_0[0]/2_bit_dac_0[1]/switch2n_3v3_0/VOUTL 4x8_bit_dac_0/8_bit_dac_tx_buffer_0[0]/8_bit_dac_0/7_bit_dac_0[0]/6_bit_dac_0[0]/5_bit_dac_0[0]/4_bit_dac_0[0]/3_bit_dac_0[0]/2_bit_dac_0[1]/switch2n_3v3_0/a_n6524_n498# 4x8_bit_dac_0/8_bit_dac_tx_buffer_0[0]/8_bit_dac_0/7_bit_dac_0[0]/6_bit_dac_0[0]/5_bit_dac_0[0]/4_bit_dac_0[0]/3_bit_dac_0[1]/VREFH VSSA sky130_fd_pr__nfet_g5v0d10v5 ad=0 pd=0 as=0.578 ps=5.32 w=0.5 l=0.5
X48 4x8_bit_dac_0/8_bit_dac_tx_buffer_0[0]/8_bit_dac_0/7_bit_dac_0[0]/6_bit_dac_0[0]/5_bit_dac_0[0]/4_bit_dac_0[0]/3_bit_dac_0[0]/2_bit_dac_0[1]/switch2n_3v3_0/VOUTH 4x8_bit_dac_0/8_bit_dac_tx_buffer_0[0]/8_bit_dac_0/7_bit_dac_0[0]/6_bit_dac_0[0]/5_bit_dac_0[0]/4_bit_dac_0[0]/3_bit_dac_0[0]/2_bit_dac_0[1]/switch2n_3v3_0/a_n6524_n498# 4x8_bit_dac_0/8_bit_dac_tx_buffer_0[0]/8_bit_dac_0/7_bit_dac_0[0]/6_bit_dac_0[0]/5_bit_dac_0[0]/4_bit_dac_0[0]/3_bit_dac_0[0]/2_bit_dac_0[1]/switch2n_3v3_0/R_H VSSA sky130_fd_pr__nfet_g5v0d10v5 ad=0 pd=0 as=0.578 ps=5.32 w=0.5 l=0.5
X49 4x8_bit_dac_0/8_bit_dac_tx_buffer_0[0]/8_bit_dac_0/7_bit_dac_0[0]/6_bit_dac_0[0]/5_bit_dac_0[0]/4_bit_dac_0[0]/3_bit_dac_0[0]/2_bit_dac_0[1]/switch2n_3v3_0/R_H 4x8_bit_dac_0/8_bit_dac_tx_buffer_0[0]/8_bit_dac_0/7_bit_dac_0[0]/6_bit_dac_0[0]/5_bit_dac_0[0]/4_bit_dac_0[0]/3_bit_dac_0[0]/2_bit_dac_0[0]/D0 4x8_bit_dac_0/8_bit_dac_tx_buffer_0[0]/8_bit_dac_0/7_bit_dac_0[0]/6_bit_dac_0[0]/5_bit_dac_0[0]/4_bit_dac_0[0]/3_bit_dac_0[0]/2_bit_dac_0[1]/switch2n_3v3_0/VOUTH VDDA sky130_fd_pr__pfet_g5v0d10v5 ad=0.29 pd=2.58 as=0 ps=0 w=1 l=0.5
X50 4x8_bit_dac_0/8_bit_dac_tx_buffer_0[0]/8_bit_dac_0/7_bit_dac_0[0]/6_bit_dac_0[0]/5_bit_dac_0[0]/4_bit_dac_0[0]/3_bit_dac_0[0]/2_bit_dac_0[1]/switch2n_3v3_0/R_H 4x8_bit_dac_0/8_bit_dac_tx_buffer_0[0]/8_bit_dac_0/7_bit_dac_0[0]/6_bit_dac_0[0]/5_bit_dac_0[0]/4_bit_dac_0[0]/3_bit_dac_0[0]/2_bit_dac_0[1]/switch2n_3v3_0/R_L VSSA sky130_fd_pr__res_generic_nd__hv w=0.42 l=2.1
X51 4x8_bit_dac_0/8_bit_dac_tx_buffer_0[0]/8_bit_dac_0/7_bit_dac_0[0]/6_bit_dac_0[0]/5_bit_dac_0[0]/4_bit_dac_0[0]/3_bit_dac_0[0]/2_bit_dac_0[1]/switch2n_3v3_0/R_L 4x8_bit_dac_0/8_bit_dac_tx_buffer_0[0]/8_bit_dac_0/7_bit_dac_0[0]/6_bit_dac_0[0]/5_bit_dac_0[0]/4_bit_dac_0[0]/3_bit_dac_0[1]/VREFH VSSA sky130_fd_pr__res_generic_nd__hv w=0.42 l=2.1
X52 4x8_bit_dac_0/8_bit_dac_tx_buffer_0[0]/8_bit_dac_0/7_bit_dac_0[0]/6_bit_dac_0[0]/5_bit_dac_0[0]/4_bit_dac_0[0]/3_bit_dac_0[0]/2_bit_dac_0[1]/switch2n_3v3_0/R_L 4x8_bit_dac_0/8_bit_dac_tx_buffer_0[0]/8_bit_dac_0/7_bit_dac_0[0]/6_bit_dac_0[0]/5_bit_dac_0[0]/4_bit_dac_0[0]/3_bit_dac_0[0]/2_bit_dac_0[0]/D0 4x8_bit_dac_0/8_bit_dac_tx_buffer_0[0]/8_bit_dac_0/7_bit_dac_0[0]/6_bit_dac_0[0]/5_bit_dac_0[0]/4_bit_dac_0[0]/3_bit_dac_0[0]/2_bit_dac_0[1]/switch2n_3v3_0/VOUTL VSSA sky130_fd_pr__nfet_g5v0d10v5 ad=0.578 pd=5.32 as=0 ps=0 w=0.5 l=0.5
X53 4x8_bit_dac_0/8_bit_dac_tx_buffer_0[0]/8_bit_dac_0/7_bit_dac_0[0]/6_bit_dac_0[0]/5_bit_dac_0[0]/4_bit_dac_0[0]/3_bit_dac_0[0]/2_bit_dac_0[0]/D0 4x8_bit_dac_0/8_bit_dac_tx_buffer_0[0]/8_bit_dac_0/7_bit_dac_0[0]/6_bit_dac_0[0]/5_bit_dac_0[0]/4_bit_dac_0[0]/3_bit_dac_0[0]/2_bit_dac_0[1]/switch2n_3v3_0/a_n6524_n498# VDDA VDDA sky130_fd_pr__pfet_g5v0d10v5 ad=0.29 pd=2.58 as=0 ps=0 w=1 l=0.5
X54 4x8_bit_dac_0/8_bit_dac_tx_buffer_0[0]/8_bit_dac_0/7_bit_dac_0[0]/6_bit_dac_0[0]/5_bit_dac_0[0]/4_bit_dac_0[0]/3_bit_dac_0[0]/2_bit_dac_0[1]/switch2n_3v3_0/a_n6524_n498# 4x8_bit_dac_0/8_bit_dac_tx_buffer_0[0]/8_bit_dac_0/7_bit_dac_0[0]/6_bit_dac_0[0]/5_bit_dac_0[0]/4_bit_dac_0[0]/3_bit_dac_0[0]/D0 VDDA VDDA sky130_fd_pr__pfet_g5v0d10v5 ad=0.29 pd=2.58 as=0 ps=0 w=1 l=0.5
X55 4x8_bit_dac_0/8_bit_dac_tx_buffer_0[0]/8_bit_dac_0/7_bit_dac_0[0]/6_bit_dac_0[0]/5_bit_dac_0[0]/4_bit_dac_0[0]/3_bit_dac_0[0]/2_bit_dac_0[1]/switch2n_3v3_0/VOUTL 4x8_bit_dac_0/8_bit_dac_tx_buffer_0[0]/8_bit_dac_0/7_bit_dac_0[0]/6_bit_dac_0[0]/5_bit_dac_0[0]/4_bit_dac_0[0]/3_bit_dac_0[0]/2_bit_dac_0[1]/switch2n_3v3_0/a_n6524_n498# 4x8_bit_dac_0/8_bit_dac_tx_buffer_0[0]/8_bit_dac_0/7_bit_dac_0[0]/6_bit_dac_0[0]/5_bit_dac_0[0]/4_bit_dac_0[0]/3_bit_dac_0[0]/2_bit_dac_0[1]/switch2n_3v3_0/R_L VDDA sky130_fd_pr__pfet_g5v0d10v5 ad=0 pd=0 as=0.29 ps=2.58 w=1 l=0.5
X56 4x8_bit_dac_0/8_bit_dac_tx_buffer_0[0]/8_bit_dac_0/7_bit_dac_0[0]/6_bit_dac_0[0]/5_bit_dac_0[0]/4_bit_dac_0[0]/3_bit_dac_0[0]/VOUT 4x8_bit_dac_0/8_bit_dac_tx_buffer_0[0]/8_bit_dac_0/D2_BUF 4x8_bit_dac_0/8_bit_dac_tx_buffer_0[0]/8_bit_dac_0/7_bit_dac_0[0]/6_bit_dac_0[0]/5_bit_dac_0[0]/4_bit_dac_0[0]/3_bit_dac_0[0]/2_bit_dac_0[0]/VOUT VSSA sky130_fd_pr__nfet_g5v0d10v5 ad=0.435 pd=4.74 as=0.435 ps=4.74 w=0.5 l=0.5
X57 4x8_bit_dac_0/8_bit_dac_tx_buffer_0[0]/8_bit_dac_0/7_bit_dac_0[0]/6_bit_dac_0[0]/5_bit_dac_0[0]/4_bit_dac_0[0]/3_bit_dac_0[0]/switch_n_3v3_1/DX_ 4x8_bit_dac_0/8_bit_dac_tx_buffer_0[0]/8_bit_dac_0/7_bit_dac_0[0]/6_bit_dac_0[0]/5_bit_dac_0[0]/4_bit_dac_0[0]/switch_n_3v3_0/D2 VDDA VDDA sky130_fd_pr__pfet_g5v0d10v5 ad=0.29 pd=2.58 as=0 ps=0 w=1 l=0.5
X58 4x8_bit_dac_0/8_bit_dac_tx_buffer_0[0]/8_bit_dac_0/D2_BUF 4x8_bit_dac_0/8_bit_dac_tx_buffer_0[0]/8_bit_dac_0/7_bit_dac_0[0]/6_bit_dac_0[0]/5_bit_dac_0[0]/4_bit_dac_0[0]/3_bit_dac_0[0]/switch_n_3v3_1/DX_ VDDA VDDA sky130_fd_pr__pfet_g5v0d10v5 ad=0.29 pd=2.58 as=0 ps=0 w=1 l=0.5
X59 4x8_bit_dac_0/8_bit_dac_tx_buffer_0[0]/8_bit_dac_0/7_bit_dac_0[0]/6_bit_dac_0[0]/5_bit_dac_0[0]/4_bit_dac_0[0]/3_bit_dac_0[0]/VOUT 4x8_bit_dac_0/8_bit_dac_tx_buffer_0[0]/8_bit_dac_0/D2_BUF 4x8_bit_dac_0/8_bit_dac_tx_buffer_0[0]/8_bit_dac_0/7_bit_dac_0[0]/6_bit_dac_0[0]/5_bit_dac_0[0]/4_bit_dac_0[0]/3_bit_dac_0[0]/2_bit_dac_0[1]/VOUT VDDA sky130_fd_pr__pfet_g5v0d10v5 ad=0.87 pd=7.74 as=0 ps=0 w=1 l=0.5
X60 4x8_bit_dac_0/8_bit_dac_tx_buffer_0[0]/8_bit_dac_0/7_bit_dac_0[0]/6_bit_dac_0[0]/5_bit_dac_0[0]/4_bit_dac_0[0]/3_bit_dac_0[0]/switch_n_3v3_1/DX_ 4x8_bit_dac_0/8_bit_dac_tx_buffer_0[0]/8_bit_dac_0/7_bit_dac_0[0]/6_bit_dac_0[0]/5_bit_dac_0[0]/4_bit_dac_0[0]/switch_n_3v3_0/D2 VSSA VSSA sky130_fd_pr__nfet_g5v0d10v5 ad=0.145 pd=1.58 as=0 ps=0 w=0.5 l=0.5
X61 4x8_bit_dac_0/8_bit_dac_tx_buffer_0[0]/8_bit_dac_0/7_bit_dac_0[0]/6_bit_dac_0[0]/5_bit_dac_0[0]/4_bit_dac_0[0]/3_bit_dac_0[0]/2_bit_dac_0[1]/VOUT 4x8_bit_dac_0/8_bit_dac_tx_buffer_0[0]/8_bit_dac_0/7_bit_dac_0[0]/6_bit_dac_0[0]/5_bit_dac_0[0]/4_bit_dac_0[0]/3_bit_dac_0[0]/switch_n_3v3_1/DX_ 4x8_bit_dac_0/8_bit_dac_tx_buffer_0[0]/8_bit_dac_0/7_bit_dac_0[0]/6_bit_dac_0[0]/5_bit_dac_0[0]/4_bit_dac_0[0]/3_bit_dac_0[0]/VOUT VSSA sky130_fd_pr__nfet_g5v0d10v5 ad=0 pd=0 as=0 ps=0 w=0.5 l=0.5
X62 4x8_bit_dac_0/8_bit_dac_tx_buffer_0[0]/8_bit_dac_0/D2_BUF 4x8_bit_dac_0/8_bit_dac_tx_buffer_0[0]/8_bit_dac_0/7_bit_dac_0[0]/6_bit_dac_0[0]/5_bit_dac_0[0]/4_bit_dac_0[0]/3_bit_dac_0[0]/switch_n_3v3_1/DX_ VSSA VSSA sky130_fd_pr__nfet_g5v0d10v5 ad=0.145 pd=1.58 as=0 ps=0 w=0.5 l=0.5
X63 4x8_bit_dac_0/8_bit_dac_tx_buffer_0[0]/8_bit_dac_0/7_bit_dac_0[0]/6_bit_dac_0[0]/5_bit_dac_0[0]/4_bit_dac_0[0]/3_bit_dac_0[0]/2_bit_dac_0[0]/VOUT 4x8_bit_dac_0/8_bit_dac_tx_buffer_0[0]/8_bit_dac_0/7_bit_dac_0[0]/6_bit_dac_0[0]/5_bit_dac_0[0]/4_bit_dac_0[0]/3_bit_dac_0[0]/switch_n_3v3_1/DX_ 4x8_bit_dac_0/8_bit_dac_tx_buffer_0[0]/8_bit_dac_0/7_bit_dac_0[0]/6_bit_dac_0[0]/5_bit_dac_0[0]/4_bit_dac_0[0]/3_bit_dac_0[0]/VOUT VDDA sky130_fd_pr__pfet_g5v0d10v5 ad=0.87 pd=7.74 as=0 ps=0 w=1 l=0.5
X64 4x8_bit_dac_0/8_bit_dac_tx_buffer_0[0]/8_bit_dac_0/7_bit_dac_0[0]/6_bit_dac_0[0]/5_bit_dac_0[0]/4_bit_dac_0[0]/3_bit_dac_0[1]/2_bit_dac_0[0]/VOUT 4x8_bit_dac_0/8_bit_dac_tx_buffer_0[0]/8_bit_dac_0/7_bit_dac_0[0]/6_bit_dac_0[0]/5_bit_dac_0[0]/4_bit_dac_0[0]/3_bit_dac_0[0]/D1 4x8_bit_dac_0/8_bit_dac_tx_buffer_0[0]/8_bit_dac_0/7_bit_dac_0[0]/6_bit_dac_0[0]/5_bit_dac_0[0]/4_bit_dac_0[0]/3_bit_dac_0[1]/2_bit_dac_0[0]/switch2n_3v3_0/VOUTH VSSA sky130_fd_pr__nfet_g5v0d10v5 ad=0.435 pd=4.74 as=0.435 ps=4.74 w=0.5 l=0.5
X65 4x8_bit_dac_0/8_bit_dac_tx_buffer_0[0]/8_bit_dac_0/7_bit_dac_0[0]/6_bit_dac_0[0]/5_bit_dac_0[0]/4_bit_dac_0[0]/3_bit_dac_0[1]/2_bit_dac_0[0]/switch_n_3v3_v2_0/DX_ 4x8_bit_dac_0/8_bit_dac_tx_buffer_0[0]/8_bit_dac_0/7_bit_dac_0[0]/6_bit_dac_0[0]/5_bit_dac_0[0]/4_bit_dac_0[0]/3_bit_dac_0[1]/2_bit_dac_0[0]/D1 VDDA VDDA sky130_fd_pr__pfet_g5v0d10v5 ad=0.29 pd=2.58 as=0 ps=0 w=1 l=0.5
X66 4x8_bit_dac_0/8_bit_dac_tx_buffer_0[0]/8_bit_dac_0/7_bit_dac_0[0]/6_bit_dac_0[0]/5_bit_dac_0[0]/4_bit_dac_0[0]/3_bit_dac_0[0]/D1 4x8_bit_dac_0/8_bit_dac_tx_buffer_0[0]/8_bit_dac_0/7_bit_dac_0[0]/6_bit_dac_0[0]/5_bit_dac_0[0]/4_bit_dac_0[0]/3_bit_dac_0[1]/2_bit_dac_0[0]/switch_n_3v3_v2_0/DX_ VDDA VDDA sky130_fd_pr__pfet_g5v0d10v5 ad=0.29 pd=2.58 as=0 ps=0 w=1 l=0.5
X67 4x8_bit_dac_0/8_bit_dac_tx_buffer_0[0]/8_bit_dac_0/7_bit_dac_0[0]/6_bit_dac_0[0]/5_bit_dac_0[0]/4_bit_dac_0[0]/3_bit_dac_0[1]/2_bit_dac_0[0]/VOUT 4x8_bit_dac_0/8_bit_dac_tx_buffer_0[0]/8_bit_dac_0/7_bit_dac_0[0]/6_bit_dac_0[0]/5_bit_dac_0[0]/4_bit_dac_0[0]/3_bit_dac_0[0]/D1 4x8_bit_dac_0/8_bit_dac_tx_buffer_0[0]/8_bit_dac_0/7_bit_dac_0[0]/6_bit_dac_0[0]/5_bit_dac_0[0]/4_bit_dac_0[0]/3_bit_dac_0[1]/2_bit_dac_0[0]/switch2n_3v3_0/VOUTL VDDA sky130_fd_pr__pfet_g5v0d10v5 ad=0.87 pd=7.74 as=0.87 ps=7.74 w=1 l=0.5
X68 4x8_bit_dac_0/8_bit_dac_tx_buffer_0[0]/8_bit_dac_0/7_bit_dac_0[0]/6_bit_dac_0[0]/5_bit_dac_0[0]/4_bit_dac_0[0]/3_bit_dac_0[1]/2_bit_dac_0[0]/switch_n_3v3_v2_0/DX_ 4x8_bit_dac_0/8_bit_dac_tx_buffer_0[0]/8_bit_dac_0/7_bit_dac_0[0]/6_bit_dac_0[0]/5_bit_dac_0[0]/4_bit_dac_0[0]/3_bit_dac_0[1]/2_bit_dac_0[0]/D1 VSSA VSSA sky130_fd_pr__nfet_g5v0d10v5 ad=0.145 pd=1.58 as=0 ps=0 w=0.5 l=0.5