* NGSPICE file created from 7_bit_dac_flat.ext - technology: sky130A

.subckt 7_bit_dac D0 VREFL D1 D2 D3 D5 D6 D0_BUF VREFH D1_BUF D2_BUF D3_BUF
+ D5_BUF D6_BUF VOUT D4_BUF D4 VSS VCC
X0 6_bit_dac_0[1].5_bit_dac_0.4_bit_dac_0[1].3_bit_dac_0[1].2_bit_dac_0[0].switch2n_3v3_0.VOUTL 6_bit_dac_0[1].5_bit_dac_0.4_bit_dac_0[1].3_bit_dac_0[1].2_bit_dac_0[0].switch_n_3v3_v2_0.DX_ 6_bit_dac_0[1].5_bit_dac_0.4_bit_dac_0[1].3_bit_dac_0[1].2_bit_dac_0[0].VOUT VSS.t393 sky130_fd_pr__nfet_g5v0d10v5 ad=0.145 pd=1.58 as=0.145 ps=1.58 w=0.5 l=0.5
X1 6_bit_dac_0[0].5_bit_dac_1.4_bit_dac_0[0].3_bit_dac_0[0].2_bit_dac_0[0].switch2n_3v3_0.R_H D0_BUF.t2 6_bit_dac_0[0].5_bit_dac_1.4_bit_dac_0[0].3_bit_dac_0[0].2_bit_dac_0[0].switch2n_3v3_0.VOUTH VCC.t450 sky130_fd_pr__pfet_g5v0d10v5 ad=0.29 pd=2.58 as=0.29 ps=2.58 w=1 l=0.5
X2 6_bit_dac_0[1].5_bit_dac_1.4_bit_dac_0[1].switch_n_3v3_0.DX_ 6_bit_dac_0[1].5_bit_dac_1.D3.t2 VSS.t194 VSS.t193 sky130_fd_pr__nfet_g5v0d10v5 ad=0.145 pd=1.58 as=0.145 ps=1.58 w=0.5 l=0.5
X3 6_bit_dac_0[0].5_bit_dac_1.4_bit_dac_0[0].3_bit_dac_0[1].2_bit_dac_0[0].switch2n_3v3_0.R_L 6_bit_dac_0[0].5_bit_dac_1.4_bit_dac_0[0].3_bit_dac_0[1].2_bit_dac_0[1].VREFH VSS.t12 sky130_fd_pr__res_generic_nd__hv w=0.42 l=2.1
X4 6_bit_dac_0[1].5_bit_dac_0.4_bit_dac_0[0].3_bit_dac_0[1].2_bit_dac_0[0].switch2n_3v3_0.VOUTH a_1556_32334# 6_bit_dac_0[1].5_bit_dac_0.4_bit_dac_0[0].3_bit_dac_0[1].2_bit_dac_0[0].switch2n_3v3_0.R_H VSS.t596 sky130_fd_pr__nfet_g5v0d10v5 ad=0.145 pd=1.58 as=0.145 ps=1.58 w=0.5 l=0.5
X5 6_bit_dac_0[1].5_bit_dac_1.4_bit_dac_0[0].D0 a_1556_24966# VCC.t307 VCC.t306 sky130_fd_pr__pfet_g5v0d10v5 ad=0.29 pd=2.58 as=0.29 ps=2.58 w=1 l=0.5
X6 6_bit_dac_0[1].5_bit_dac_1.D3.t0 6_bit_dac_0[1].5_bit_dac_0.4_bit_dac_0[0].switch_n_3v3_0.DX_ VSS.t606 VSS.t605 sky130_fd_pr__nfet_g5v0d10v5 ad=0.145 pd=1.58 as=0.145 ps=1.58 w=0.5 l=0.5
X7 6_bit_dac_0[1].5_bit_dac_1.switch_n_3v3_0.DX_ 6_bit_dac_0[1].5_bit_dac_1.D4.t2 VCC.t597 VCC.t596 sky130_fd_pr__pfet_g5v0d10v5 ad=0.29 pd=2.58 as=0.29 ps=2.58 w=1 l=0.5
X8 6_bit_dac_0[1].5_bit_dac_1.4_bit_dac_0[0].3_bit_dac_0[0].VOUT 6_bit_dac_0[1].5_bit_dac_1.4_bit_dac_0[0].switch_n_3v3_0.DX_ 6_bit_dac_0[1].5_bit_dac_1.4_bit_dac_0[0].VOUT VCC.t603 sky130_fd_pr__pfet_g5v0d10v5 ad=0.29 pd=2.58 as=0.29 ps=2.58 w=1 l=0.5
X9 6_bit_dac_0[1].5_bit_dac_0.4_bit_dac_0[1].3_bit_dac_0[1].2_bit_dac_0[0].switch2n_3v3_0.VOUTH a_1556_37246# a_544_37677# VCC.t338 sky130_fd_pr__pfet_g5v0d10v5 ad=0.29 pd=2.58 as=0.29 ps=2.58 w=1 l=0.5
X10 a_544_32765# 6_bit_dac_0[1].5_bit_dac_0.4_bit_dac_0[0].3_bit_dac_0[1].VREFH VSS.t1 sky130_fd_pr__res_generic_nd__hv w=0.42 l=2.1
X11 6_bit_dac_0[1].5_bit_dac_0.4_bit_dac_0[0].3_bit_dac_0[0].2_bit_dac_0[0].switch2n_3v3_0.VOUTH a_1556_29878# a_544_30309# VCC.t317 sky130_fd_pr__pfet_g5v0d10v5 ad=0.29 pd=2.58 as=0.29 ps=2.58 w=1 l=0.5
X12 6_bit_dac_0[1].5_bit_dac_0.switch_n_3v3_0.D3 6_bit_dac_0[1].5_bit_dac_0.4_bit_dac_0[1].switch_n_3v3_0.DX_ VCC.t388 VCC.t387 sky130_fd_pr__pfet_g5v0d10v5 ad=0.29 pd=2.58 as=0.29 ps=2.58 w=1 l=0.5
X13 6_bit_dac_0[1].5_bit_dac_0.4_bit_dac_0[1].3_bit_dac_0[1].2_bit_dac_0[0].switch_n_3v3_v2_0.DX_ 6_bit_dac_0[1].5_bit_dac_0.4_bit_dac_0[1].3_bit_dac_0[1].2_bit_dac_0[0].D1 VSS.t130 VSS.t129 sky130_fd_pr__nfet_g5v0d10v5 ad=0.145 pd=1.58 as=0.145 ps=1.58 w=0.5 l=0.5
X14 6_bit_dac_0[1].5_bit_dac_0.4_bit_dac_0[0].3_bit_dac_0[1].2_bit_dac_0[1].switch2n_3v3_0.VOUTH a_1556_33562# a_544_33993# VCC.t292 sky130_fd_pr__pfet_g5v0d10v5 ad=0.29 pd=2.58 as=0.29 ps=2.58 w=1 l=0.5
X15 6_bit_dac_0[0].5_bit_dac_0.4_bit_dac_0[0].VOUT 6_bit_dac_0[0].5_bit_dac_0.switch_n_3v3_0.DX_ 6_bit_dac_0[0].5_bit_dac_0.VOUT.t0 VCC.t24 sky130_fd_pr__pfet_g5v0d10v5 ad=0.29 pd=2.58 as=0.29 ps=2.58 w=1 l=0.5
X16 6_bit_dac_0[0].5_bit_dac_1.4_bit_dac_0[1].3_bit_dac_0[0].D0 a_1556_7774# VSS.t465 VSS.t464 sky130_fd_pr__nfet_g5v0d10v5 ad=0.145 pd=1.58 as=0.145 ps=1.58 w=0.5 l=0.5
X17 6_bit_dac_0[1].5_bit_dac_0.4_bit_dac_0[0].3_bit_dac_0[1].2_bit_dac_0[0].switch_n_3v3_v2_0.DX_ 6_bit_dac_0[1].5_bit_dac_0.4_bit_dac_0[0].3_bit_dac_0[1].2_bit_dac_0[0].D1 VCC.t183 VCC.t182 sky130_fd_pr__pfet_g5v0d10v5 ad=0.29 pd=2.58 as=0.29 ps=2.58 w=1 l=0.5
X18 6_bit_dac_0[1].5_bit_dac_0.4_bit_dac_0[0].3_bit_dac_0[0].VOUT 6_bit_dac_0[1].5_bit_dac_1.D2 6_bit_dac_0[1].5_bit_dac_0.4_bit_dac_0[0].3_bit_dac_0[0].2_bit_dac_0[1].VOUT VCC.t364 sky130_fd_pr__pfet_g5v0d10v5 ad=0.29 pd=2.58 as=0.29 ps=2.58 w=1 l=0.5
X19 switch_n_3v3_1.D5.t1 6_bit_dac_0[1].switch_n_3v3_0.DX_ VCC.t552 VCC.t551 sky130_fd_pr__pfet_g5v0d10v5 ad=0.29 pd=2.58 as=0.29 ps=2.58 w=1 l=0.5
X20 6_bit_dac_0[1].5_bit_dac_0.4_bit_dac_0[0].switch_n_3v3_0.D2 6_bit_dac_0[1].5_bit_dac_0.4_bit_dac_0[0].3_bit_dac_0[1].switch_n_3v3_1.DX_ VCC.t142 VCC.t141 sky130_fd_pr__pfet_g5v0d10v5 ad=0.29 pd=2.58 as=0.29 ps=2.58 w=1 l=0.5
X21 a_544_11889# 6_bit_dac_0[0].5_bit_dac_0.4_bit_dac_0[0].3_bit_dac_0[0].2_bit_dac_0[1].switch2n_3v3_0.R_H VSS.t0 sky130_fd_pr__res_generic_nd__hv w=0.42 l=2.1
X22 6_bit_dac_0[1].5_bit_dac_1.4_bit_dac_0[0].3_bit_dac_0[0].2_bit_dac_0[0].switch2n_3v3_0.R_L 6_bit_dac_0[1].5_bit_dac_1.4_bit_dac_0[0].3_bit_dac_0[0].2_bit_dac_0[1].VREFH VSS.t12 sky130_fd_pr__res_generic_nd__hv w=0.42 l=2.1
X23 6_bit_dac_0[1].5_bit_dac_1.4_bit_dac_0[0].3_bit_dac_0[0].2_bit_dac_0[0].switch2n_3v3_0.R_L 6_bit_dac_0[0].D0 6_bit_dac_0[1].5_bit_dac_1.4_bit_dac_0[0].3_bit_dac_0[0].2_bit_dac_0[0].switch2n_3v3_0.VOUTL VSS.t408 sky130_fd_pr__nfet_g5v0d10v5 ad=0.145 pd=1.58 as=0.145 ps=1.58 w=0.5 l=0.5
X24 6_bit_dac_0[1].5_bit_dac_0.4_bit_dac_0[0].3_bit_dac_0[1].VOUT 6_bit_dac_0[1].5_bit_dac_0.4_bit_dac_0[0].switch_n_3v3_0.DX_ 6_bit_dac_0[1].5_bit_dac_0.4_bit_dac_0[0].VOUT VSS.t604 sky130_fd_pr__nfet_g5v0d10v5 ad=0.145 pd=1.58 as=0.145 ps=1.58 w=0.5 l=0.5
X25 6_bit_dac_0[1].5_bit_dac_0.4_bit_dac_0[1].3_bit_dac_0[0].2_bit_dac_0[0].switch_n_3v3_v2_0.DX_ 6_bit_dac_0[1].5_bit_dac_0.4_bit_dac_0[1].3_bit_dac_0[0].2_bit_dac_0[0].D1 VCC.t385 VCC.t384 sky130_fd_pr__pfet_g5v0d10v5 ad=0.29 pd=2.58 as=0.29 ps=2.58 w=1 l=0.5
X26 6_bit_dac_0[0].5_bit_dac_1.4_bit_dac_0[0].3_bit_dac_0[1].2_bit_dac_0[0].switch2n_3v3_0.R_L 6_bit_dac_0[0].5_bit_dac_1.4_bit_dac_0[0].3_bit_dac_0[0].D0 6_bit_dac_0[0].5_bit_dac_1.4_bit_dac_0[0].3_bit_dac_0[1].2_bit_dac_0[0].switch2n_3v3_0.VOUTL VSS.t571 sky130_fd_pr__nfet_g5v0d10v5 ad=0.145 pd=1.58 as=0.145 ps=1.58 w=0.5 l=0.5
X27 6_bit_dac_0[0].5_bit_dac_1.4_bit_dac_0[0].D0 a_1556_5318# VCC.t559 VCC.t558 sky130_fd_pr__pfet_g5v0d10v5 ad=0.29 pd=2.58 as=0.29 ps=2.58 w=1 l=0.5
X28 6_bit_dac_0[1].5_bit_dac_0.4_bit_dac_0[1].3_bit_dac_0[1].2_bit_dac_0[1].switch_n_3v3_v2_0.DX_ D1.t0 VCC.t139 VCC.t138 sky130_fd_pr__pfet_g5v0d10v5 ad=0.29 pd=2.58 as=0.29 ps=2.58 w=1 l=0.5
X29 6_bit_dac_0[0].5_bit_dac_1.4_bit_dac_0[0].3_bit_dac_0[1].2_bit_dac_0[0].switch2n_3v3_0.VOUTL a_1556_2862# 6_bit_dac_0[0].5_bit_dac_1.4_bit_dac_0[0].3_bit_dac_0[1].2_bit_dac_0[0].switch2n_3v3_0.R_L VCC.t595 sky130_fd_pr__pfet_g5v0d10v5 ad=0.29 pd=2.58 as=0.29 ps=2.58 w=1 l=0.5
X30 6_bit_dac_0[1].5_bit_dac_1.4_bit_dac_0[0].3_bit_dac_0[0].2_bit_dac_0[0].switch2n_3v3_0.VOUTL a_1556_20054# 6_bit_dac_0[1].5_bit_dac_1.4_bit_dac_0[0].3_bit_dac_0[0].2_bit_dac_0[0].switch2n_3v3_0.R_L VCC.t36 sky130_fd_pr__pfet_g5v0d10v5 ad=0.29 pd=2.58 as=0.29 ps=2.58 w=1 l=0.5
X31 a_544_18029# 6_bit_dac_0[0].5_bit_dac_0.4_bit_dac_0[1].3_bit_dac_0[1].2_bit_dac_0[0].switch2n_3v3_0.R_H VSS.t0 sky130_fd_pr__res_generic_nd__hv w=0.42 l=2.1
X32 6_bit_dac_0[1].5_bit_dac_1.4_bit_dac_0[1].3_bit_dac_0[1].2_bit_dac_0[1].switch2n_3v3_0.VOUTL a_1556_28650# 6_bit_dac_0[1].5_bit_dac_1.VREFL VSS.t540 sky130_fd_pr__nfet_g5v0d10v5 ad=0.145 pd=1.58 as=0.145 ps=1.58 w=0.5 l=0.5
X33 6_bit_dac_0[1].5_bit_dac_1.4_bit_dac_0[1].3_bit_dac_0[0].2_bit_dac_0[1].switch2n_3v3_0.R_L 6_bit_dac_0[1].5_bit_dac_1.4_bit_dac_0[1].3_bit_dac_0[1].VREFH VSS.t12 sky130_fd_pr__res_generic_nd__hv w=0.42 l=2.1
X34 6_bit_dac_0[1].5_bit_dac_0.4_bit_dac_0[0].3_bit_dac_0[0].D0 a_1556_32334# VSS.t595 VSS.t594 sky130_fd_pr__nfet_g5v0d10v5 ad=0.145 pd=1.58 as=0.145 ps=1.58 w=0.5 l=0.5
X35 6_bit_dac_0[1].5_bit_dac_1.4_bit_dac_0[0].3_bit_dac_0[1].VREFH 6_bit_dac_0[1].5_bit_dac_1.4_bit_dac_0[0].3_bit_dac_0[0].2_bit_dac_0[0].D0 6_bit_dac_0[1].5_bit_dac_1.4_bit_dac_0[0].3_bit_dac_0[0].2_bit_dac_0[1].switch2n_3v3_0.VOUTL VCC.t448 sky130_fd_pr__pfet_g5v0d10v5 ad=0.29 pd=2.58 as=0.29 ps=2.58 w=1 l=0.5
X36 6_bit_dac_0[0].5_bit_dac_1.4_bit_dac_0[1].3_bit_dac_0[0].2_bit_dac_0[0].switch2n_3v3_0.R_L 6_bit_dac_0[0].5_bit_dac_1.4_bit_dac_0[0].D0 6_bit_dac_0[0].5_bit_dac_1.4_bit_dac_0[1].3_bit_dac_0[0].2_bit_dac_0[0].switch2n_3v3_0.VOUTL VSS.t64 sky130_fd_pr__nfet_g5v0d10v5 ad=0.145 pd=1.58 as=0.145 ps=1.58 w=0.5 l=0.5
X37 6_bit_dac_0[1].5_bit_dac_1.4_bit_dac_0[0].3_bit_dac_0[0].2_bit_dac_0[1].switch2n_3v3_0.VOUTH 6_bit_dac_0[1].5_bit_dac_1.4_bit_dac_0[0].3_bit_dac_0[0].2_bit_dac_0[1].switch_n_3v3_v2_0.DX_ 6_bit_dac_0[1].5_bit_dac_1.4_bit_dac_0[0].3_bit_dac_0[0].2_bit_dac_0[1].VOUT VCC.t127 sky130_fd_pr__pfet_g5v0d10v5 ad=0.29 pd=2.58 as=0.29 ps=2.58 w=1 l=0.5
X38 6_bit_dac_0[1].5_bit_dac_0.4_bit_dac_0[0].switch_n_3v3_0.DX_ 6_bit_dac_0[1].5_bit_dac_0.switch_n_3v3_0.D3 VSS.t471 VSS.t470 sky130_fd_pr__nfet_g5v0d10v5 ad=0.145 pd=1.58 as=0.145 ps=1.58 w=0.5 l=0.5
X39 6_bit_dac_0[1].5_bit_dac_1.4_bit_dac_0[1].3_bit_dac_0[0].2_bit_dac_0[1].switch2n_3v3_0.VOUTL a_1556_26194# 6_bit_dac_0[1].5_bit_dac_1.4_bit_dac_0[1].3_bit_dac_0[0].2_bit_dac_0[1].switch2n_3v3_0.R_L VCC.t28 sky130_fd_pr__pfet_g5v0d10v5 ad=0.29 pd=2.58 as=0.29 ps=2.58 w=1 l=0.5
X40 6_bit_dac_0[1].5_bit_dac_0.4_bit_dac_0[1].3_bit_dac_0[0].D0 a_1556_37246# VCC.t337 VCC.t336 sky130_fd_pr__pfet_g5v0d10v5 ad=0.29 pd=2.58 as=0.29 ps=2.58 w=1 l=0.5
X41 6_bit_dac_0[1].5_bit_dac_1.D0 a_1556_29878# VCC.t316 VCC.t315 sky130_fd_pr__pfet_g5v0d10v5 ad=0.29 pd=2.58 as=0.29 ps=2.58 w=1 l=0.5
X42 6_bit_dac_0[1].5_bit_dac_0.4_bit_dac_0[1].switch_n_3v3_0.DX_ D3.t0 VCC.t21 VCC.t20 sky130_fd_pr__pfet_g5v0d10v5 ad=0.29 pd=2.58 as=0.29 ps=2.58 w=1 l=0.5
X43 6_bit_dac_0[1].5_bit_dac_0.4_bit_dac_0[0].3_bit_dac_0[1].2_bit_dac_0[0].D0 a_1556_33562# VCC.t291 VCC.t290 sky130_fd_pr__pfet_g5v0d10v5 ad=0.29 pd=2.58 as=0.29 ps=2.58 w=1 l=0.5
X44 6_bit_dac_0[0].5_bit_dac_1.4_bit_dac_0[1].3_bit_dac_0[0].2_bit_dac_0[1].switch2n_3v3_0.VOUTH a_1556_6546# 6_bit_dac_0[0].5_bit_dac_1.4_bit_dac_0[1].3_bit_dac_0[0].2_bit_dac_0[1].switch2n_3v3_0.R_H VSS.t80 sky130_fd_pr__nfet_g5v0d10v5 ad=0.145 pd=1.58 as=0.145 ps=1.58 w=0.5 l=0.5
X45 6_bit_dac_0[1].switch_n_3v3_0.DX_ D5.t0 VCC.t366 VCC.t365 sky130_fd_pr__pfet_g5v0d10v5 ad=0.29 pd=2.58 as=0.29 ps=2.58 w=1 l=0.5
X46 6_bit_dac_0[0].5_bit_dac_1.4_bit_dac_0[0].3_bit_dac_0[0].2_bit_dac_0[1].switch2n_3v3_0.VOUTH a_1556_1634# a_544_2065# VCC.t124 sky130_fd_pr__pfet_g5v0d10v5 ad=0.29 pd=2.58 as=0.29 ps=2.58 w=1 l=0.5
X47 6_bit_dac_0[1].5_bit_dac_0.4_bit_dac_0[0].3_bit_dac_0[1].switch_n_3v3_1.DX_ 6_bit_dac_0[1].5_bit_dac_0.switch_n_3v3_0.D2 VCC.t433 VCC.t432 sky130_fd_pr__pfet_g5v0d10v5 ad=0.29 pd=2.58 as=0.29 ps=2.58 w=1 l=0.5
X48 6_bit_dac_0[0].5_bit_dac_1.4_bit_dac_0[0].3_bit_dac_0[1].2_bit_dac_0[1].switch2n_3v3_0.VOUTH a_1556_4090# a_544_4521# VCC.t490 sky130_fd_pr__pfet_g5v0d10v5 ad=0.29 pd=2.58 as=0.29 ps=2.58 w=1 l=0.5
X49 6_bit_dac_0[0].5_bit_dac_1.4_bit_dac_0[0].3_bit_dac_0[0].2_bit_dac_0[1].switch2n_3v3_0.VOUTL 6_bit_dac_0[0].5_bit_dac_1.4_bit_dac_0[0].3_bit_dac_0[0].2_bit_dac_0[1].switch_n_3v3_v2_0.DX_ 6_bit_dac_0[0].5_bit_dac_1.4_bit_dac_0[0].3_bit_dac_0[0].2_bit_dac_0[1].VOUT VSS.t353 sky130_fd_pr__nfet_g5v0d10v5 ad=0.145 pd=1.58 as=0.145 ps=1.58 w=0.5 l=0.5
X50 6_bit_dac_0[0].5_bit_dac_1.4_bit_dac_0[1].3_bit_dac_0[0].2_bit_dac_0[1].switch2n_3v3_0.R_L 6_bit_dac_0[0].5_bit_dac_1.4_bit_dac_0[1].3_bit_dac_0[1].VREFH VSS.t12 sky130_fd_pr__res_generic_nd__hv w=0.42 l=2.1
X51 6_bit_dac_0[0].5_bit_dac_1.4_bit_dac_0[0].3_bit_dac_0[0].2_bit_dac_0[1].switch_n_3v3_v2_0.DX_ 6_bit_dac_0[0].5_bit_dac_1.4_bit_dac_0[0].3_bit_dac_0[0].D1 VSS.t47 VSS.t46 sky130_fd_pr__nfet_g5v0d10v5 ad=0.145 pd=1.58 as=0.145 ps=1.58 w=0.5 l=0.5
X52 6_bit_dac_0[1].5_bit_dac_1.4_bit_dac_0[1].3_bit_dac_0[0].2_bit_dac_0[0].VOUT 6_bit_dac_0[1].5_bit_dac_1.4_bit_dac_0[1].3_bit_dac_0[0].switch_n_3v3_1.DX_ 6_bit_dac_0[1].5_bit_dac_1.4_bit_dac_0[1].3_bit_dac_0[0].VOUT VCC.t623 sky130_fd_pr__pfet_g5v0d10v5 ad=0.29 pd=2.58 as=0.29 ps=2.58 w=1 l=0.5
X53 6_bit_dac_0[0].5_bit_dac_1.4_bit_dac_0[1].3_bit_dac_0[1].2_bit_dac_0[1].switch2n_3v3_0.R_L 6_bit_dac_0[0].5_bit_dac_1.VREFL VSS.t12 sky130_fd_pr__res_generic_nd__hv w=0.42 l=2.1
X54 6_bit_dac_0[0].5_bit_dac_1.4_bit_dac_0[1].3_bit_dac_0[0].2_bit_dac_0[1].switch_n_3v3_v2_0.DX_ 6_bit_dac_0[0].5_bit_dac_1.4_bit_dac_0[1].3_bit_dac_0[0].D1 VCC.t284 VCC.t283 sky130_fd_pr__pfet_g5v0d10v5 ad=0.29 pd=2.58 as=0.29 ps=2.58 w=1 l=0.5
X55 6_bit_dac_0[1].5_bit_dac_0.4_bit_dac_0[1].3_bit_dac_0[1].2_bit_dac_0[1].switch2n_3v3_0.R_L VREFL.t2 VSS.t12 sky130_fd_pr__res_generic_nd__hv w=0.42 l=2.1
X56 6_bit_dac_0[1].5_bit_dac_0.4_bit_dac_0[1].3_bit_dac_0[1].2_bit_dac_0[1].switch2n_3v3_0.R_L 6_bit_dac_0[1].5_bit_dac_0.4_bit_dac_0[1].3_bit_dac_0[1].2_bit_dac_0[0].D0 6_bit_dac_0[1].5_bit_dac_0.4_bit_dac_0[1].3_bit_dac_0[1].2_bit_dac_0[1].switch2n_3v3_0.VOUTL VSS.t185 sky130_fd_pr__nfet_g5v0d10v5 ad=0.145 pd=1.58 as=0.145 ps=1.58 w=0.5 l=0.5
X57 a_544_30309# 6_bit_dac_0[1].5_bit_dac_0.4_bit_dac_0[0].3_bit_dac_0[0].2_bit_dac_0[0].switch2n_3v3_0.R_H VSS.t0 sky130_fd_pr__res_generic_nd__hv w=0.42 l=2.1
X58 6_bit_dac_0[1].5_bit_dac_0.4_bit_dac_0[0].3_bit_dac_0[1].2_bit_dac_0[1].switch2n_3v3_0.VOUTL a_1556_33562# 6_bit_dac_0[1].5_bit_dac_0.4_bit_dac_0[1].VREFH VSS.t293 sky130_fd_pr__nfet_g5v0d10v5 ad=0.145 pd=1.58 as=0.145 ps=1.58 w=0.5 l=0.5
X59 6_bit_dac_0[1].5_bit_dac_0.4_bit_dac_0[0].3_bit_dac_0[0].2_bit_dac_0[1].switch2n_3v3_0.R_L 6_bit_dac_0[1].5_bit_dac_0.4_bit_dac_0[0].3_bit_dac_0[1].VREFH VSS.t12 sky130_fd_pr__res_generic_nd__hv w=0.42 l=2.1
X60 6_bit_dac_0[1].5_bit_dac_0.4_bit_dac_0[0].3_bit_dac_0[0].2_bit_dac_0[1].switch2n_3v3_0.R_L 6_bit_dac_0[1].5_bit_dac_0.4_bit_dac_0[0].3_bit_dac_0[0].2_bit_dac_0[0].D0 6_bit_dac_0[1].5_bit_dac_0.4_bit_dac_0[0].3_bit_dac_0[0].2_bit_dac_0[1].switch2n_3v3_0.VOUTL VSS.t41 sky130_fd_pr__nfet_g5v0d10v5 ad=0.145 pd=1.58 as=0.145 ps=1.58 w=0.5 l=0.5
X61 6_bit_dac_0[0].5_bit_dac_0.4_bit_dac_0[0].3_bit_dac_0[0].2_bit_dac_0[1].switch2n_3v3_0.R_H 6_bit_dac_0[0].5_bit_dac_0.4_bit_dac_0[0].3_bit_dac_0[0].2_bit_dac_0[0].D0 6_bit_dac_0[0].5_bit_dac_0.4_bit_dac_0[0].3_bit_dac_0[0].2_bit_dac_0[1].switch2n_3v3_0.VOUTH VCC.t269 sky130_fd_pr__pfet_g5v0d10v5 ad=0.29 pd=2.58 as=0.29 ps=2.58 w=1 l=0.5
X62 VOUT.t2 D6_BUF.t2 6_bit_dac_0[1].VOUT.t1 VCC.t491 sky130_fd_pr__pfet_g5v0d10v5 ad=0.29 pd=2.58 as=0.29 ps=2.58 w=1 l=0.5
X63 6_bit_dac_0[0].5_bit_dac_1.4_bit_dac_0[1].3_bit_dac_0[0].2_bit_dac_0[0].switch2n_3v3_0.R_H 6_bit_dac_0[0].5_bit_dac_1.4_bit_dac_0[1].3_bit_dac_0[0].2_bit_dac_0[0].switch2n_3v3_0.R_L VSS.t51 sky130_fd_pr__res_generic_nd__hv w=0.42 l=2.1
X64 6_bit_dac_0[1].5_bit_dac_1.4_bit_dac_0[1].3_bit_dac_0[0].2_bit_dac_0[0].VOUT 6_bit_dac_0[1].5_bit_dac_1.4_bit_dac_0[0].D1 6_bit_dac_0[1].5_bit_dac_1.4_bit_dac_0[1].3_bit_dac_0[0].2_bit_dac_0[0].switch2n_3v3_0.VOUTH VSS.t397 sky130_fd_pr__nfet_g5v0d10v5 ad=0.145 pd=1.58 as=0.145 ps=1.58 w=0.5 l=0.5
X65 a_544_15573# 6_bit_dac_0[0].5_bit_dac_0.4_bit_dac_0[1].3_bit_dac_0[0].2_bit_dac_0[0].switch2n_3v3_0.R_H VSS.t0 sky130_fd_pr__res_generic_nd__hv w=0.42 l=2.1
X66 6_bit_dac_0[1].5_bit_dac_0.4_bit_dac_0[1].3_bit_dac_0[0].2_bit_dac_0[1].switch2n_3v3_0.R_H 6_bit_dac_0[1].5_bit_dac_0.4_bit_dac_0[1].3_bit_dac_0[0].2_bit_dac_0[1].switch2n_3v3_0.R_L VSS.t51 sky130_fd_pr__res_generic_nd__hv w=0.42 l=2.1
X67 6_bit_dac_0[0].5_bit_dac_1.4_bit_dac_0[1].3_bit_dac_0[0].2_bit_dac_0[1].VOUT 6_bit_dac_0[0].5_bit_dac_1.4_bit_dac_0[1].3_bit_dac_0[0].2_bit_dac_0[0].D1 6_bit_dac_0[0].5_bit_dac_1.4_bit_dac_0[1].3_bit_dac_0[0].2_bit_dac_0[1].switch2n_3v3_0.VOUTH VSS.t457 sky130_fd_pr__nfet_g5v0d10v5 ad=0.145 pd=1.58 as=0.145 ps=1.58 w=0.5 l=0.5
X68 6_bit_dac_0[1].5_bit_dac_0.4_bit_dac_0[1].3_bit_dac_0[1].VREFH 6_bit_dac_0[1].5_bit_dac_0.4_bit_dac_0[1].3_bit_dac_0[0].2_bit_dac_0[0].D0 6_bit_dac_0[1].5_bit_dac_0.4_bit_dac_0[1].3_bit_dac_0[0].2_bit_dac_0[1].switch2n_3v3_0.VOUTL VCC.t437 sky130_fd_pr__pfet_g5v0d10v5 ad=0.29 pd=2.58 as=0.29 ps=2.58 w=1 l=0.5
X69 6_bit_dac_0[1].5_bit_dac_0.4_bit_dac_0[1].3_bit_dac_0[0].2_bit_dac_0[1].switch2n_3v3_0.VOUTL a_1556_36018# 6_bit_dac_0[1].5_bit_dac_0.4_bit_dac_0[1].3_bit_dac_0[1].VREFH VSS.t289 sky130_fd_pr__nfet_g5v0d10v5 ad=0.145 pd=1.58 as=0.145 ps=1.58 w=0.5 l=0.5
X70 6_bit_dac_0[1].5_bit_dac_0.4_bit_dac_0[1].3_bit_dac_0[0].2_bit_dac_0[1].VOUT 6_bit_dac_0[1].5_bit_dac_0.4_bit_dac_0[1].3_bit_dac_0[0].switch_n_3v3_1.DX_ 6_bit_dac_0[1].5_bit_dac_0.4_bit_dac_0[1].3_bit_dac_0[0].VOUT VSS.t488 sky130_fd_pr__nfet_g5v0d10v5 ad=0.145 pd=1.58 as=0.145 ps=1.58 w=0.5 l=0.5
X71 6_bit_dac_0[1].5_bit_dac_0.4_bit_dac_0[0].3_bit_dac_0[0].2_bit_dac_0[1].switch2n_3v3_0.VOUTL a_1556_31106# 6_bit_dac_0[1].5_bit_dac_0.4_bit_dac_0[0].3_bit_dac_0[0].2_bit_dac_0[1].switch2n_3v3_0.R_L VCC.t577 sky130_fd_pr__pfet_g5v0d10v5 ad=0.29 pd=2.58 as=0.29 ps=2.58 w=1 l=0.5
X72 6_bit_dac_0[1].5_bit_dac_0.4_bit_dac_0[1].3_bit_dac_0[0].2_bit_dac_0[1].switch2n_3v3_0.VOUTH 6_bit_dac_0[1].5_bit_dac_0.4_bit_dac_0[1].3_bit_dac_0[0].2_bit_dac_0[1].switch_n_3v3_v2_0.DX_ 6_bit_dac_0[1].5_bit_dac_0.4_bit_dac_0[1].3_bit_dac_0[0].2_bit_dac_0[1].VOUT VCC.t298 sky130_fd_pr__pfet_g5v0d10v5 ad=0.29 pd=2.58 as=0.29 ps=2.58 w=1 l=0.5
X73 6_bit_dac_0[0].5_bit_dac_1.4_bit_dac_0[1].3_bit_dac_0[1].2_bit_dac_0[0].D0 a_1556_9002# VCC.t607 VCC.t606 sky130_fd_pr__pfet_g5v0d10v5 ad=0.29 pd=2.58 as=0.29 ps=2.58 w=1 l=0.5
X74 6_bit_dac_0[0].5_bit_dac_0.4_bit_dac_0[1].3_bit_dac_0[1].2_bit_dac_0[0].switch2n_3v3_0.R_H 6_bit_dac_0[0].5_bit_dac_0.4_bit_dac_0[1].3_bit_dac_0[0].D0 6_bit_dac_0[0].5_bit_dac_0.4_bit_dac_0[1].3_bit_dac_0[1].2_bit_dac_0[0].switch2n_3v3_0.VOUTH VCC.t358 sky130_fd_pr__pfet_g5v0d10v5 ad=0.29 pd=2.58 as=0.29 ps=2.58 w=1 l=0.5
X75 6_bit_dac_0[0].5_bit_dac_0.4_bit_dac_0[0].3_bit_dac_0[0].2_bit_dac_0[0].VOUT 6_bit_dac_0[0].5_bit_dac_1.D1 6_bit_dac_0[0].5_bit_dac_0.4_bit_dac_0[0].3_bit_dac_0[0].2_bit_dac_0[0].switch2n_3v3_0.VOUTH VSS.t296 sky130_fd_pr__nfet_g5v0d10v5 ad=0.145 pd=1.58 as=0.145 ps=1.58 w=0.5 l=0.5
X76 6_bit_dac_0[0].5_bit_dac_1.4_bit_dac_0[1].3_bit_dac_0[0].2_bit_dac_0[1].VOUT 6_bit_dac_0[0].5_bit_dac_1.4_bit_dac_0[1].3_bit_dac_0[0].switch_n_3v3_1.DX_ 6_bit_dac_0[0].5_bit_dac_1.4_bit_dac_0[1].3_bit_dac_0[0].VOUT VSS.t359 sky130_fd_pr__nfet_g5v0d10v5 ad=0.145 pd=1.58 as=0.145 ps=1.58 w=0.5 l=0.5
X77 a_1556_11458# 6_bit_dac_0[0].5_bit_dac_0.4_bit_dac_0[0].3_bit_dac_0[0].D0 VCC.t398 VCC.t397 sky130_fd_pr__pfet_g5v0d10v5 ad=0.29 pd=2.58 as=0.29 ps=2.58 w=1 l=0.5
X78 6_bit_dac_0[0].5_bit_dac_1.4_bit_dac_0[0].3_bit_dac_0[0].2_bit_dac_0[0].switch2n_3v3_0.VOUTL 6_bit_dac_0[0].5_bit_dac_1.4_bit_dac_0[0].3_bit_dac_0[0].2_bit_dac_0[0].switch_n_3v3_v2_0.DX_ 6_bit_dac_0[0].5_bit_dac_1.4_bit_dac_0[0].3_bit_dac_0[0].2_bit_dac_0[0].VOUT VSS.t372 sky130_fd_pr__nfet_g5v0d10v5 ad=0.145 pd=1.58 as=0.145 ps=1.58 w=0.5 l=0.5
X79 6_bit_dac_0[0].5_bit_dac_1.4_bit_dac_0[1].3_bit_dac_0[0].switch_n_3v3_1.DX_ 6_bit_dac_0[0].5_bit_dac_1.4_bit_dac_0[1].switch_n_3v3_0.D2 VSS.t207 VSS.t206 sky130_fd_pr__nfet_g5v0d10v5 ad=0.145 pd=1.58 as=0.145 ps=1.58 w=0.5 l=0.5
X80 6_bit_dac_0[0].5_bit_dac_1.4_bit_dac_0[1].3_bit_dac_0[1].2_bit_dac_0[1].switch2n_3v3_0.R_L 6_bit_dac_0[0].5_bit_dac_1.4_bit_dac_0[1].3_bit_dac_0[1].2_bit_dac_0[0].D0 6_bit_dac_0[0].5_bit_dac_1.4_bit_dac_0[1].3_bit_dac_0[1].2_bit_dac_0[1].switch2n_3v3_0.VOUTL VSS.t578 sky130_fd_pr__nfet_g5v0d10v5 ad=0.145 pd=1.58 as=0.145 ps=1.58 w=0.5 l=0.5
X81 6_bit_dac_0[0].5_bit_dac_1.4_bit_dac_0[0].3_bit_dac_0[0].switch_n_3v3_1.DX_ 6_bit_dac_0[0].5_bit_dac_1.4_bit_dac_0[0].switch_n_3v3_0.D2 VCC.t408 VCC.t407 sky130_fd_pr__pfet_g5v0d10v5 ad=0.29 pd=2.58 as=0.29 ps=2.58 w=1 l=0.5
X82 6_bit_dac_0[0].5_bit_dac_1.4_bit_dac_0[0].3_bit_dac_0[1].2_bit_dac_0[1].switch2n_3v3_0.VOUTH a_1556_4090# 6_bit_dac_0[0].5_bit_dac_1.4_bit_dac_0[0].3_bit_dac_0[1].2_bit_dac_0[1].switch2n_3v3_0.R_H VSS.t492 sky130_fd_pr__nfet_g5v0d10v5 ad=0.145 pd=1.58 as=0.145 ps=1.58 w=0.5 l=0.5
X83 a_1556_17598# 6_bit_dac_0[0].5_bit_dac_0.4_bit_dac_0[1].3_bit_dac_0[1].2_bit_dac_0[0].D0 VCC.t495 VCC.t494 sky130_fd_pr__pfet_g5v0d10v5 ad=0.29 pd=2.58 as=0.29 ps=2.58 w=1 l=0.5
X84 6_bit_dac_0[0].5_bit_dac_1.4_bit_dac_0[0].3_bit_dac_0[1].switch_n_3v3_1.DX_ 6_bit_dac_0[0].5_bit_dac_1.switch_n_3v3_0.D2 VCC.t526 VCC.t525 sky130_fd_pr__pfet_g5v0d10v5 ad=0.29 pd=2.58 as=0.29 ps=2.58 w=1 l=0.5
X85 6_bit_dac_0[0].5_bit_dac_1.4_bit_dac_0[0].3_bit_dac_0[0].VOUT D2_BUF.t2 6_bit_dac_0[0].5_bit_dac_1.4_bit_dac_0[0].3_bit_dac_0[0].2_bit_dac_0[0].VOUT VSS.t381 sky130_fd_pr__nfet_g5v0d10v5 ad=0.145 pd=1.58 as=0.145 ps=1.58 w=0.5 l=0.5
X86 6_bit_dac_0[1].5_bit_dac_0.4_bit_dac_0[0].3_bit_dac_0[0].2_bit_dac_0[0].VOUT 6_bit_dac_0[1].5_bit_dac_0.4_bit_dac_0[0].3_bit_dac_0[0].switch_n_3v3_1.DX_ 6_bit_dac_0[1].5_bit_dac_0.4_bit_dac_0[0].3_bit_dac_0[0].VOUT VCC.t6 sky130_fd_pr__pfet_g5v0d10v5 ad=0.29 pd=2.58 as=0.29 ps=2.58 w=1 l=0.5
X87 a_544_25397# 6_bit_dac_0[1].5_bit_dac_1.4_bit_dac_0[0].D0 6_bit_dac_0[1].5_bit_dac_1.4_bit_dac_0[1].3_bit_dac_0[0].2_bit_dac_0[0].switch2n_3v3_0.VOUTH VSS.t60 sky130_fd_pr__nfet_g5v0d10v5 ad=0.145 pd=1.58 as=0.145 ps=1.58 w=0.5 l=0.5
X88 6_bit_dac_0[0].5_bit_dac_1.4_bit_dac_0[1].3_bit_dac_0[0].2_bit_dac_0[0].switch2n_3v3_0.VOUTL 6_bit_dac_0[0].5_bit_dac_1.4_bit_dac_0[1].3_bit_dac_0[0].2_bit_dac_0[0].switch_n_3v3_v2_0.DX_ 6_bit_dac_0[0].5_bit_dac_1.4_bit_dac_0[1].3_bit_dac_0[0].2_bit_dac_0[0].VOUT VSS.t346 sky130_fd_pr__nfet_g5v0d10v5 ad=0.145 pd=1.58 as=0.145 ps=1.58 w=0.5 l=0.5
X89 6_bit_dac_0[0].5_bit_dac_1.4_bit_dac_0[1].3_bit_dac_0[1].2_bit_dac_0[0].switch2n_3v3_0.VOUTH a_1556_7774# a_544_8205# VCC.t464 sky130_fd_pr__pfet_g5v0d10v5 ad=0.29 pd=2.58 as=0.29 ps=2.58 w=1 l=0.5
X90 6_bit_dac_0[0].5_bit_dac_0.VOUT.t4 6_bit_dac_0[0].5_bit_dac_1.D4.t2 6_bit_dac_0[0].5_bit_dac_0.4_bit_dac_0[0].VOUT VSS.t322 sky130_fd_pr__nfet_g5v0d10v5 ad=0.145 pd=1.58 as=0.145 ps=1.58 w=0.5 l=0.5
X91 a_544_20485# 6_bit_dac_0[1].5_bit_dac_1.4_bit_dac_0[0].3_bit_dac_0[0].2_bit_dac_0[0].switch2n_3v3_0.R_H VSS.t0 sky130_fd_pr__res_generic_nd__hv w=0.42 l=2.1
X92 6_bit_dac_0[0].5_bit_dac_0.4_bit_dac_0[1].3_bit_dac_0[0].D1 6_bit_dac_0[0].5_bit_dac_0.4_bit_dac_0[1].3_bit_dac_0[1].2_bit_dac_0[0].switch_n_3v3_v2_0.DX_ VCC.t483 VCC.t482 sky130_fd_pr__pfet_g5v0d10v5 ad=0.29 pd=2.58 as=0.29 ps=2.58 w=1 l=0.5
X93 6_bit_dac_0[0].5_bit_dac_0.4_bit_dac_0[0].3_bit_dac_0[0].2_bit_dac_0[1].VOUT 6_bit_dac_0[0].5_bit_dac_0.4_bit_dac_0[0].3_bit_dac_0[0].2_bit_dac_0[0].D1 6_bit_dac_0[0].5_bit_dac_0.4_bit_dac_0[0].3_bit_dac_0[0].2_bit_dac_0[1].switch2n_3v3_0.VOUTL VCC.t72 sky130_fd_pr__pfet_g5v0d10v5 ad=0.29 pd=2.58 as=0.29 ps=2.58 w=1 l=0.5
X94 a_544_10661# 6_bit_dac_0[0].5_bit_dac_1.D0 6_bit_dac_0[0].5_bit_dac_0.4_bit_dac_0[0].3_bit_dac_0[0].2_bit_dac_0[0].switch2n_3v3_0.VOUTH VSS.t137 sky130_fd_pr__nfet_g5v0d10v5 ad=0.145 pd=1.58 as=0.145 ps=1.58 w=0.5 l=0.5
X95 6_bit_dac_0[1].5_bit_dac_1.4_bit_dac_0[0].3_bit_dac_0[1].2_bit_dac_0[0].switch2n_3v3_0.R_H 6_bit_dac_0[1].5_bit_dac_1.4_bit_dac_0[0].3_bit_dac_0[0].D0 6_bit_dac_0[1].5_bit_dac_1.4_bit_dac_0[0].3_bit_dac_0[1].2_bit_dac_0[0].switch2n_3v3_0.VOUTH VCC.t379 sky130_fd_pr__pfet_g5v0d10v5 ad=0.29 pd=2.58 as=0.29 ps=2.58 w=1 l=0.5
X96 6_bit_dac_0[0].5_bit_dac_1.4_bit_dac_0[0].3_bit_dac_0[1].2_bit_dac_0[0].switch_n_3v3_v2_0.DX_ 6_bit_dac_0[0].5_bit_dac_1.4_bit_dac_0[0].3_bit_dac_0[1].2_bit_dac_0[0].D1 VCC.t246 VCC.t245 sky130_fd_pr__pfet_g5v0d10v5 ad=0.29 pd=2.58 as=0.29 ps=2.58 w=1 l=0.5
X97 6_bit_dac_0[0].5_bit_dac_0.4_bit_dac_0[0].3_bit_dac_0[0].2_bit_dac_0[1].switch2n_3v3_0.VOUTH a_1556_11458# 6_bit_dac_0[0].5_bit_dac_0.4_bit_dac_0[0].3_bit_dac_0[0].2_bit_dac_0[1].switch2n_3v3_0.R_H VSS.t178 sky130_fd_pr__nfet_g5v0d10v5 ad=0.145 pd=1.58 as=0.145 ps=1.58 w=0.5 l=0.5
X98 a_544_26625# 6_bit_dac_0[1].5_bit_dac_1.4_bit_dac_0[1].3_bit_dac_0[0].2_bit_dac_0[1].switch2n_3v3_0.R_H VSS.t0 sky130_fd_pr__res_generic_nd__hv w=0.42 l=2.1
X99 6_bit_dac_0[0].5_bit_dac_0.4_bit_dac_0[1].3_bit_dac_0[0].2_bit_dac_0[0].switch2n_3v3_0.R_H 6_bit_dac_0[0].5_bit_dac_0.4_bit_dac_0[0].D0 6_bit_dac_0[0].5_bit_dac_0.4_bit_dac_0[1].3_bit_dac_0[0].2_bit_dac_0[0].switch2n_3v3_0.VOUTH VCC.t16 sky130_fd_pr__pfet_g5v0d10v5 ad=0.29 pd=2.58 as=0.29 ps=2.58 w=1 l=0.5
X100 a_1556_24966# 6_bit_dac_0[1].5_bit_dac_1.4_bit_dac_0[1].3_bit_dac_0[0].2_bit_dac_0[0].D0 VSS.t260 VSS.t259 sky130_fd_pr__nfet_g5v0d10v5 ad=0.145 pd=1.58 as=0.145 ps=1.58 w=0.5 l=0.5
X101 6_bit_dac_0[0].5_bit_dac_1.D2 6_bit_dac_0[0].5_bit_dac_0.4_bit_dac_0[0].3_bit_dac_0[0].switch_n_3v3_1.DX_ VSS.t263 VSS.t262 sky130_fd_pr__nfet_g5v0d10v5 ad=0.145 pd=1.58 as=0.145 ps=1.58 w=0.5 l=0.5
X102 6_bit_dac_0[1].5_bit_dac_1.4_bit_dac_0[1].3_bit_dac_0[1].2_bit_dac_0[1].VOUT 6_bit_dac_0[1].5_bit_dac_1.4_bit_dac_0[1].3_bit_dac_0[1].2_bit_dac_0[0].D1 6_bit_dac_0[1].5_bit_dac_1.4_bit_dac_0[1].3_bit_dac_0[1].2_bit_dac_0[1].switch2n_3v3_0.VOUTH VSS.t170 sky130_fd_pr__nfet_g5v0d10v5 ad=0.145 pd=1.58 as=0.145 ps=1.58 w=0.5 l=0.5
X103 a_1556_10230# 6_bit_dac_0[0].5_bit_dac_0.4_bit_dac_0[0].3_bit_dac_0[0].2_bit_dac_0[0].D0 VSS.t270 VSS.t269 sky130_fd_pr__nfet_g5v0d10v5 ad=0.145 pd=1.58 as=0.145 ps=1.58 w=0.5 l=0.5
X104 a_544_11889# 6_bit_dac_0[0].5_bit_dac_0.4_bit_dac_0[0].3_bit_dac_0[0].2_bit_dac_0[1].VREFH VSS.t1 sky130_fd_pr__res_generic_nd__hv w=0.42 l=2.1
X105 a_1556_22510# 6_bit_dac_0[1].5_bit_dac_1.4_bit_dac_0[0].3_bit_dac_0[1].2_bit_dac_0[0].D0 VCC.t169 VCC.t168 sky130_fd_pr__pfet_g5v0d10v5 ad=0.29 pd=2.58 as=0.29 ps=2.58 w=1 l=0.5
X106 6_bit_dac_0[0].5_bit_dac_1.4_bit_dac_0[1].3_bit_dac_0[0].D1 6_bit_dac_0[0].5_bit_dac_1.4_bit_dac_0[1].3_bit_dac_0[1].2_bit_dac_0[0].switch_n_3v3_v2_0.DX_ VSS.t592 VSS.t591 sky130_fd_pr__nfet_g5v0d10v5 ad=0.145 pd=1.58 as=0.145 ps=1.58 w=0.5 l=0.5
X107 6_bit_dac_0[0].5_bit_dac_0.4_bit_dac_0[0].3_bit_dac_0[1].2_bit_dac_0[0].switch2n_3v3_0.VOUTH a_1556_12686# a_544_13117# VCC.t217 sky130_fd_pr__pfet_g5v0d10v5 ad=0.29 pd=2.58 as=0.29 ps=2.58 w=1 l=0.5
X108 6_bit_dac_0[0].5_bit_dac_0.switch_n_3v3_0.D3 6_bit_dac_0[0].5_bit_dac_0.4_bit_dac_0[1].switch_n_3v3_0.DX_ VSS.t327 VSS.t326 sky130_fd_pr__nfet_g5v0d10v5 ad=0.145 pd=1.58 as=0.145 ps=1.58 w=0.5 l=0.5
X109 6_bit_dac_0[0].VOUT.t1 D5_BUF.t2 6_bit_dac_0[0].5_bit_dac_0.VOUT.t3 VCC.t270 sky130_fd_pr__pfet_g5v0d10v5 ad=0.29 pd=2.58 as=0.29 ps=2.58 w=1 l=0.5
X110 6_bit_dac_0[0].5_bit_dac_1.D3.t1 6_bit_dac_0[0].5_bit_dac_0.4_bit_dac_0[0].switch_n_3v3_0.DX_ VCC.t506 VCC.t505 sky130_fd_pr__pfet_g5v0d10v5 ad=0.29 pd=2.58 as=0.29 ps=2.58 w=1 l=0.5
X111 a_1556_15142# 6_bit_dac_0[0].5_bit_dac_0.4_bit_dac_0[1].3_bit_dac_0[0].2_bit_dac_0[0].D0 VCC.t32 VCC.t31 sky130_fd_pr__pfet_g5v0d10v5 ad=0.29 pd=2.58 as=0.29 ps=2.58 w=1 l=0.5
X112 a_544_18029# 6_bit_dac_0[0].5_bit_dac_0.4_bit_dac_0[1].3_bit_dac_0[1].VREFH VSS.t1 sky130_fd_pr__res_generic_nd__hv w=0.42 l=2.1
X113 6_bit_dac_0[0].5_bit_dac_1.4_bit_dac_0[0].D1 6_bit_dac_0[0].5_bit_dac_1.4_bit_dac_0[1].3_bit_dac_0[0].2_bit_dac_0[0].switch_n_3v3_v2_0.DX_ VCC.t341 VCC.t340 sky130_fd_pr__pfet_g5v0d10v5 ad=0.29 pd=2.58 as=0.29 ps=2.58 w=1 l=0.5
X114 6_bit_dac_0[1].5_bit_dac_1.4_bit_dac_0[0].D1 6_bit_dac_0[1].5_bit_dac_1.4_bit_dac_0[1].3_bit_dac_0[0].2_bit_dac_0[0].switch_n_3v3_v2_0.DX_ VSS.t147 VSS.t146 sky130_fd_pr__nfet_g5v0d10v5 ad=0.145 pd=1.58 as=0.145 ps=1.58 w=0.5 l=0.5
X115 6_bit_dac_0[0].5_bit_dac_0.4_bit_dac_0[1].3_bit_dac_0[1].2_bit_dac_0[0].switch_n_3v3_v2_0.DX_ 6_bit_dac_0[0].5_bit_dac_0.4_bit_dac_0[1].3_bit_dac_0[1].2_bit_dac_0[0].D1 VCC.t91 VCC.t90 sky130_fd_pr__pfet_g5v0d10v5 ad=0.29 pd=2.58 as=0.29 ps=2.58 w=1 l=0.5
X116 6_bit_dac_0[0].5_bit_dac_0.4_bit_dac_0[1].3_bit_dac_0[0].VOUT 6_bit_dac_0[0].5_bit_dac_0.switch_n_3v3_0.D2 6_bit_dac_0[0].5_bit_dac_0.4_bit_dac_0[1].3_bit_dac_0[0].2_bit_dac_0[1].VOUT VCC.t382 sky130_fd_pr__pfet_g5v0d10v5 ad=0.29 pd=2.58 as=0.29 ps=2.58 w=1 l=0.5
X117 6_bit_dac_0[1].5_bit_dac_1.4_bit_dac_0[0].3_bit_dac_0[1].VOUT 6_bit_dac_0[1].5_bit_dac_1.4_bit_dac_0[0].switch_n_3v3_0.D2 6_bit_dac_0[1].5_bit_dac_1.4_bit_dac_0[0].3_bit_dac_0[1].2_bit_dac_0[0].VOUT VSS.t637 sky130_fd_pr__nfet_g5v0d10v5 ad=0.145 pd=1.58 as=0.145 ps=1.58 w=0.5 l=0.5
X118 6_bit_dac_0[1].5_bit_dac_1.4_bit_dac_0[0].3_bit_dac_0[0].D1 6_bit_dac_0[1].5_bit_dac_1.4_bit_dac_0[0].3_bit_dac_0[1].2_bit_dac_0[0].switch_n_3v3_v2_0.DX_ VCC.t97 VCC.t96 sky130_fd_pr__pfet_g5v0d10v5 ad=0.29 pd=2.58 as=0.29 ps=2.58 w=1 l=0.5
X119 6_bit_dac_0[0].5_bit_dac_1.4_bit_dac_0[1].switch_n_3v3_0.DX_ 6_bit_dac_0[0].5_bit_dac_1.D3.t2 VCC.t115 VCC.t114 sky130_fd_pr__pfet_g5v0d10v5 ad=0.29 pd=2.58 as=0.29 ps=2.58 w=1 l=0.5
X120 6_bit_dac_0[0].5_bit_dac_1.D1 6_bit_dac_0[0].5_bit_dac_0.4_bit_dac_0[0].3_bit_dac_0[0].2_bit_dac_0[0].switch_n_3v3_v2_0.DX_ VSS.t213 VSS.t212 sky130_fd_pr__nfet_g5v0d10v5 ad=0.145 pd=1.58 as=0.145 ps=1.58 w=0.5 l=0.5
X121 6_bit_dac_0[0].5_bit_dac_0.4_bit_dac_0[0].3_bit_dac_0[0].2_bit_dac_0[0].D0 a_1556_11458# VSS.t177 VSS.t176 sky130_fd_pr__nfet_g5v0d10v5 ad=0.145 pd=1.58 as=0.145 ps=1.58 w=0.5 l=0.5
X122 6_bit_dac_0[1].5_bit_dac_1.4_bit_dac_0[0].3_bit_dac_0[1].2_bit_dac_0[1].VOUT 6_bit_dac_0[1].5_bit_dac_1.4_bit_dac_0[0].3_bit_dac_0[1].2_bit_dac_0[0].D1 6_bit_dac_0[1].5_bit_dac_1.4_bit_dac_0[0].3_bit_dac_0[1].2_bit_dac_0[1].switch2n_3v3_0.VOUTL VCC.t517 sky130_fd_pr__pfet_g5v0d10v5 ad=0.29 pd=2.58 as=0.29 ps=2.58 w=1 l=0.5
X123 6_bit_dac_0[0].5_bit_dac_1.VOUT D4_BUF.t2 6_bit_dac_0[0].5_bit_dac_1.4_bit_dac_0[0].VOUT VSS.t567 sky130_fd_pr__nfet_g5v0d10v5 ad=0.145 pd=1.58 as=0.145 ps=1.58 w=0.5 l=0.5
X124 6_bit_dac_0[0].5_bit_dac_1.4_bit_dac_0[1].3_bit_dac_0[0].2_bit_dac_0[0].VOUT 6_bit_dac_0[0].5_bit_dac_1.4_bit_dac_0[0].D1 6_bit_dac_0[0].5_bit_dac_1.4_bit_dac_0[1].3_bit_dac_0[0].2_bit_dac_0[0].switch2n_3v3_0.VOUTL VCC.t146 sky130_fd_pr__pfet_g5v0d10v5 ad=0.29 pd=2.58 as=0.29 ps=2.58 w=1 l=0.5
X125 6_bit_dac_0[0].VOUT.t0 switch_n_3v3_1.DX_ VOUT.t1 VCC.t85 sky130_fd_pr__pfet_g5v0d10v5 ad=0.29 pd=2.58 as=0.29 ps=2.58 w=1 l=0.5