* SPICE3 file created from 8_bit_dac_tx_buffer.ext - technology: sky130A

.subckt x8_bit_dac_tx_buffer VDDA VSSD VCCD VSSA D0 D1 D2 D3 D4 D5 D6 D7 VOUT VREFH
+ VOUT_BUF
X0 8_bit_dac_0/7_bit_dac_0[0]/6_bit_dac_0[0]/VOUT 8_bit_dac_0/D5_BUF 8_bit_dac_0/7_bit_dac_0[0]/6_bit_dac_0[0]/5_bit_dac_0[0]/VOUT VSSA sky130_fd_pr__nfet_g5v0d10v5 ad=0.145 pd=1.58 as=0.145 ps=1.58 w=0.5 l=0.5
X1 8_bit_dac_0/7_bit_dac_0[0]/6_bit_dac_0[0]/switch_n_3v3_0/DX_ 8_bit_dac_0/7_bit_dac_0[0]/switch_n_3v3_1/D5 VDDA VDDA sky130_fd_pr__pfet_g5v0d10v5 ad=0.29 pd=2.58 as=0.29 ps=2.58 w=1 l=0.5
X2 8_bit_dac_0/D5_BUF 8_bit_dac_0/7_bit_dac_0[0]/6_bit_dac_0[0]/switch_n_3v3_0/DX_ VDDA VDDA sky130_fd_pr__pfet_g5v0d10v5 ad=0.29 pd=2.58 as=0.29 ps=2.58 w=1 l=0.5
X3 8_bit_dac_0/7_bit_dac_0[0]/6_bit_dac_0[0]/VOUT 8_bit_dac_0/D5_BUF 8_bit_dac_0/7_bit_dac_0[0]/6_bit_dac_0[0]/5_bit_dac_0[1]/VOUT VDDA sky130_fd_pr__pfet_g5v0d10v5 ad=0.29 pd=2.58 as=0.29 ps=2.58 w=1 l=0.5
X4 8_bit_dac_0/7_bit_dac_0[0]/6_bit_dac_0[0]/switch_n_3v3_0/DX_ 8_bit_dac_0/7_bit_dac_0[0]/switch_n_3v3_1/D5 VSSA VSSA sky130_fd_pr__nfet_g5v0d10v5 ad=0.145 pd=1.58 as=0.145 ps=1.58 w=0.5 l=0.5
X5 8_bit_dac_0/7_bit_dac_0[0]/6_bit_dac_0[0]/5_bit_dac_0[1]/VOUT 8_bit_dac_0/7_bit_dac_0[0]/6_bit_dac_0[0]/switch_n_3v3_0/DX_ 8_bit_dac_0/7_bit_dac_0[0]/6_bit_dac_0[0]/VOUT VSSA sky130_fd_pr__nfet_g5v0d10v5 ad=0.145 pd=1.58 as=0.145 ps=1.58 w=0.5 l=0.5
X6 8_bit_dac_0/D5_BUF 8_bit_dac_0/7_bit_dac_0[0]/6_bit_dac_0[0]/switch_n_3v3_0/DX_ VSSA VSSA sky130_fd_pr__nfet_g5v0d10v5 ad=0.145 pd=1.58 as=0.145 ps=1.58 w=0.5 l=0.5
X7 8_bit_dac_0/7_bit_dac_0[0]/6_bit_dac_0[0]/5_bit_dac_0[0]/VOUT 8_bit_dac_0/7_bit_dac_0[0]/6_bit_dac_0[0]/switch_n_3v3_0/DX_ 8_bit_dac_0/7_bit_dac_0[0]/6_bit_dac_0[0]/VOUT VDDA sky130_fd_pr__pfet_g5v0d10v5 ad=0.29 pd=2.58 as=0.29 ps=2.58 w=1 l=0.5
X8 8_bit_dac_0/7_bit_dac_0[0]/6_bit_dac_0[0]/5_bit_dac_0[0]/4_bit_dac_0[0]/3_bit_dac_0[0]/2_bit_dac_0[0]/VOUT 8_bit_dac_0/D1_BUF 8_bit_dac_0/7_bit_dac_0[0]/6_bit_dac_0[0]/5_bit_dac_0[0]/4_bit_dac_0[0]/3_bit_dac_0[0]/2_bit_dac_0[0]/switch2n_3v3_0/VOUTH VSSA sky130_fd_pr__nfet_g5v0d10v5 ad=0.145 pd=1.58 as=0.145 ps=1.58 w=0.5 l=0.5
X9 8_bit_dac_0/7_bit_dac_0[0]/6_bit_dac_0[0]/5_bit_dac_0[0]/4_bit_dac_0[0]/3_bit_dac_0[0]/2_bit_dac_0[0]/switch_n_3v3_v2_0/DX_ 8_bit_dac_0/7_bit_dac_0[0]/6_bit_dac_0[0]/5_bit_dac_0[0]/4_bit_dac_0[0]/3_bit_dac_0[0]/2_bit_dac_0[0]/D1 VDDA VDDA sky130_fd_pr__pfet_g5v0d10v5 ad=0.29 pd=2.58 as=0.29 ps=2.58 w=1 l=0.5
X10 8_bit_dac_0/D1_BUF 8_bit_dac_0/7_bit_dac_0[0]/6_bit_dac_0[0]/5_bit_dac_0[0]/4_bit_dac_0[0]/3_bit_dac_0[0]/2_bit_dac_0[0]/switch_n_3v3_v2_0/DX_ VDDA VDDA sky130_fd_pr__pfet_g5v0d10v5 ad=0.29 pd=2.58 as=0.29 ps=2.58 w=1 l=0.5
X11 8_bit_dac_0/7_bit_dac_0[0]/6_bit_dac_0[0]/5_bit_dac_0[0]/4_bit_dac_0[0]/3_bit_dac_0[0]/2_bit_dac_0[0]/VOUT 8_bit_dac_0/D1_BUF 8_bit_dac_0/7_bit_dac_0[0]/6_bit_dac_0[0]/5_bit_dac_0[0]/4_bit_dac_0[0]/3_bit_dac_0[0]/2_bit_dac_0[0]/switch2n_3v3_0/VOUTL VDDA sky130_fd_pr__pfet_g5v0d10v5 ad=0.29 pd=2.58 as=0.29 ps=2.58 w=1 l=0.5
X12 8_bit_dac_0/7_bit_dac_0[0]/6_bit_dac_0[0]/5_bit_dac_0[0]/4_bit_dac_0[0]/3_bit_dac_0[0]/2_bit_dac_0[0]/switch_n_3v3_v2_0/DX_ 8_bit_dac_0/7_bit_dac_0[0]/6_bit_dac_0[0]/5_bit_dac_0[0]/4_bit_dac_0[0]/3_bit_dac_0[0]/2_bit_dac_0[0]/D1 VSSA VSSA sky130_fd_pr__nfet_g5v0d10v5 ad=0.145 pd=1.58 as=0.145 ps=1.58 w=0.5 l=0.5
X13 8_bit_dac_0/7_bit_dac_0[0]/6_bit_dac_0[0]/5_bit_dac_0[0]/4_bit_dac_0[0]/3_bit_dac_0[0]/2_bit_dac_0[0]/switch2n_3v3_0/VOUTL 8_bit_dac_0/7_bit_dac_0[0]/6_bit_dac_0[0]/5_bit_dac_0[0]/4_bit_dac_0[0]/3_bit_dac_0[0]/2_bit_dac_0[0]/switch_n_3v3_v2_0/DX_ 8_bit_dac_0/7_bit_dac_0[0]/6_bit_dac_0[0]/5_bit_dac_0[0]/4_bit_dac_0[0]/3_bit_dac_0[0]/2_bit_dac_0[0]/VOUT VSSA sky130_fd_pr__nfet_g5v0d10v5 ad=0.145 pd=1.58 as=0.145 ps=1.58 w=0.5 l=0.5
X14 8_bit_dac_0/D1_BUF 8_bit_dac_0/7_bit_dac_0[0]/6_bit_dac_0[0]/5_bit_dac_0[0]/4_bit_dac_0[0]/3_bit_dac_0[0]/2_bit_dac_0[0]/switch_n_3v3_v2_0/DX_ VSSA VSSA sky130_fd_pr__nfet_g5v0d10v5 ad=0.145 pd=1.58 as=0.145 ps=1.58 w=0.5 l=0.5
X15 8_bit_dac_0/7_bit_dac_0[0]/6_bit_dac_0[0]/5_bit_dac_0[0]/4_bit_dac_0[0]/3_bit_dac_0[0]/2_bit_dac_0[0]/switch2n_3v3_0/VOUTH 8_bit_dac_0/7_bit_dac_0[0]/6_bit_dac_0[0]/5_bit_dac_0[0]/4_bit_dac_0[0]/3_bit_dac_0[0]/2_bit_dac_0[0]/switch_n_3v3_v2_0/DX_ 8_bit_dac_0/7_bit_dac_0[0]/6_bit_dac_0[0]/5_bit_dac_0[0]/4_bit_dac_0[0]/3_bit_dac_0[0]/2_bit_dac_0[0]/VOUT VDDA sky130_fd_pr__pfet_g5v0d10v5 ad=0.29 pd=2.58 as=0.29 ps=2.58 w=1 l=0.5
X16 8_bit_dac_0/7_bit_dac_0[0]/6_bit_dac_0[0]/5_bit_dac_0[0]/4_bit_dac_0[0]/3_bit_dac_0[0]/2_bit_dac_0[0]/switch2n_3v3_0/VOUTH 8_bit_dac_0/7_bit_dac_0[0]/6_bit_dac_0[0]/5_bit_dac_0[0]/4_bit_dac_0[0]/3_bit_dac_0[0]/2_bit_dac_0[0]/switch2n_3v3_0/a_n6524_n498# 8_bit_dac_0/7_bit_dac_0[0]/6_bit_dac_0[0]/5_bit_dac_0[0]/4_bit_dac_0[0]/3_bit_dac_0[0]/2_bit_dac_0[0]/switch2n_3v3_0/VREFH VDDA sky130_fd_pr__pfet_g5v0d10v5 ad=0.29 pd=2.58 as=0.29 ps=2.58 w=1 l=0.5
X17 8_bit_dac_0/7_bit_dac_0[0]/6_bit_dac_0[0]/5_bit_dac_0[0]/4_bit_dac_0[0]/3_bit_dac_0[0]/2_bit_dac_0[0]/switch2n_3v3_0/VREFH 8_bit_dac_0/D0_BUF 8_bit_dac_0/7_bit_dac_0[0]/6_bit_dac_0[0]/5_bit_dac_0[0]/4_bit_dac_0[0]/3_bit_dac_0[0]/2_bit_dac_0[0]/switch2n_3v3_0/VOUTH VSSA sky130_fd_pr__nfet_g5v0d10v5 ad=0.145 pd=1.58 as=0.145 ps=1.58 w=0.5 l=0.5
X18 8_bit_dac_0/7_bit_dac_0[0]/6_bit_dac_0[0]/5_bit_dac_0[0]/4_bit_dac_0[0]/3_bit_dac_0[0]/2_bit_dac_0[0]/switch2n_3v3_0/VREFH 8_bit_dac_0/7_bit_dac_0[0]/6_bit_dac_0[0]/5_bit_dac_0[0]/4_bit_dac_0[0]/3_bit_dac_0[0]/2_bit_dac_0[0]/switch2n_3v3_0/R_H VSSA sky130_fd_pr__res_generic_nd__hv w=0.42 l=2.1
X19 8_bit_dac_0/D0_BUF 8_bit_dac_0/7_bit_dac_0[0]/6_bit_dac_0[0]/5_bit_dac_0[0]/4_bit_dac_0[0]/3_bit_dac_0[0]/2_bit_dac_0[0]/switch2n_3v3_0/a_n6524_n498# VSSA VSSA sky130_fd_pr__nfet_g5v0d10v5 ad=0.145 pd=1.58 as=0.145 ps=1.58 w=0.5 l=0.5
X20 8_bit_dac_0/7_bit_dac_0[0]/6_bit_dac_0[0]/5_bit_dac_0[0]/4_bit_dac_0[0]/3_bit_dac_0[0]/2_bit_dac_0[1]/VREFH 8_bit_dac_0/D0_BUF 8_bit_dac_0/7_bit_dac_0[0]/6_bit_dac_0[0]/5_bit_dac_0[0]/4_bit_dac_0[0]/3_bit_dac_0[0]/2_bit_dac_0[0]/switch2n_3v3_0/VOUTL VDDA sky130_fd_pr__pfet_g5v0d10v5 ad=0.29 pd=2.58 as=0.29 ps=2.58 w=1 l=0.5
X21 8_bit_dac_0/7_bit_dac_0[0]/6_bit_dac_0[0]/5_bit_dac_0[0]/4_bit_dac_0[0]/3_bit_dac_0[0]/2_bit_dac_0[0]/switch2n_3v3_0/VREFH VREFH VSSA sky130_fd_pr__res_generic_nd__hv w=0.42 l=2.1
X22 8_bit_dac_0/7_bit_dac_0[0]/6_bit_dac_0[0]/5_bit_dac_0[0]/4_bit_dac_0[0]/3_bit_dac_0[0]/2_bit_dac_0[0]/switch2n_3v3_0/a_n6524_n498# 8_bit_dac_0/7_bit_dac_0[0]/6_bit_dac_0[0]/5_bit_dac_0[0]/4_bit_dac_0[0]/3_bit_dac_0[0]/2_bit_dac_0[0]/D0 VSSA VSSA sky130_fd_pr__nfet_g5v0d10v5 ad=0.145 pd=1.58 as=0.145 ps=1.58 w=0.5 l=0.5
X23 8_bit_dac_0/7_bit_dac_0[0]/6_bit_dac_0[0]/5_bit_dac_0[0]/4_bit_dac_0[0]/3_bit_dac_0[0]/2_bit_dac_0[0]/switch2n_3v3_0/VOUTL 8_bit_dac_0/7_bit_dac_0[0]/6_bit_dac_0[0]/5_bit_dac_0[0]/4_bit_dac_0[0]/3_bit_dac_0[0]/2_bit_dac_0[0]/switch2n_3v3_0/a_n6524_n498# 8_bit_dac_0/7_bit_dac_0[0]/6_bit_dac_0[0]/5_bit_dac_0[0]/4_bit_dac_0[0]/3_bit_dac_0[0]/2_bit_dac_0[1]/VREFH VSSA sky130_fd_pr__nfet_g5v0d10v5 ad=0.145 pd=1.58 as=0.145 ps=1.58 w=0.5 l=0.5
X24 8_bit_dac_0/7_bit_dac_0[0]/6_bit_dac_0[0]/5_bit_dac_0[0]/4_bit_dac_0[0]/3_bit_dac_0[0]/2_bit_dac_0[0]/switch2n_3v3_0/VOUTH 8_bit_dac_0/7_bit_dac_0[0]/6_bit_dac_0[0]/5_bit_dac_0[0]/4_bit_dac_0[0]/3_bit_dac_0[0]/2_bit_dac_0[0]/switch2n_3v3_0/a_n6524_n498# 8_bit_dac_0/7_bit_dac_0[0]/6_bit_dac_0[0]/5_bit_dac_0[0]/4_bit_dac_0[0]/3_bit_dac_0[0]/2_bit_dac_0[0]/switch2n_3v3_0/R_H VSSA sky130_fd_pr__nfet_g5v0d10v5 ad=0.145 pd=1.58 as=0.145 ps=1.58 w=0.5 l=0.5
X25 8_bit_dac_0/7_bit_dac_0[0]/6_bit_dac_0[0]/5_bit_dac_0[0]/4_bit_dac_0[0]/3_bit_dac_0[0]/2_bit_dac_0[0]/switch2n_3v3_0/R_H 8_bit_dac_0/D0_BUF 8_bit_dac_0/7_bit_dac_0[0]/6_bit_dac_0[0]/5_bit_dac_0[0]/4_bit_dac_0[0]/3_bit_dac_0[0]/2_bit_dac_0[0]/switch2n_3v3_0/VOUTH VDDA sky130_fd_pr__pfet_g5v0d10v5 ad=0.29 pd=2.58 as=0.29 ps=2.58 w=1 l=0.5
X26 8_bit_dac_0/7_bit_dac_0[0]/6_bit_dac_0[0]/5_bit_dac_0[0]/4_bit_dac_0[0]/3_bit_dac_0[0]/2_bit_dac_0[0]/switch2n_3v3_0/R_H 8_bit_dac_0/7_bit_dac_0[0]/6_bit_dac_0[0]/5_bit_dac_0[0]/4_bit_dac_0[0]/3_bit_dac_0[0]/2_bit_dac_0[0]/switch2n_3v3_0/R_L VSSA sky130_fd_pr__res_generic_nd__hv w=0.42 l=2.1
X27 8_bit_dac_0/7_bit_dac_0[0]/6_bit_dac_0[0]/5_bit_dac_0[0]/4_bit_dac_0[0]/3_bit_dac_0[0]/2_bit_dac_0[0]/switch2n_3v3_0/R_L 8_bit_dac_0/7_bit_dac_0[0]/6_bit_dac_0[0]/5_bit_dac_0[0]/4_bit_dac_0[0]/3_bit_dac_0[0]/2_bit_dac_0[1]/VREFH VSSA sky130_fd_pr__res_generic_nd__hv w=0.42 l=2.1
X28 8_bit_dac_0/7_bit_dac_0[0]/6_bit_dac_0[0]/5_bit_dac_0[0]/4_bit_dac_0[0]/3_bit_dac_0[0]/2_bit_dac_0[0]/switch2n_3v3_0/R_L 8_bit_dac_0/D0_BUF 8_bit_dac_0/7_bit_dac_0[0]/6_bit_dac_0[0]/5_bit_dac_0[0]/4_bit_dac_0[0]/3_bit_dac_0[0]/2_bit_dac_0[0]/switch2n_3v3_0/VOUTL VSSA sky130_fd_pr__nfet_g5v0d10v5 ad=0.145 pd=1.58 as=0.145 ps=1.58 w=0.5 l=0.5
X29 8_bit_dac_0/D0_BUF 8_bit_dac_0/7_bit_dac_0[0]/6_bit_dac_0[0]/5_bit_dac_0[0]/4_bit_dac_0[0]/3_bit_dac_0[0]/2_bit_dac_0[0]/switch2n_3v3_0/a_n6524_n498# VDDA VDDA sky130_fd_pr__pfet_g5v0d10v5 ad=0.29 pd=2.58 as=0.29 ps=2.58 w=1 l=0.5
X30 8_bit_dac_0/7_bit_dac_0[0]/6_bit_dac_0[0]/5_bit_dac_0[0]/4_bit_dac_0[0]/3_bit_dac_0[0]/2_bit_dac_0[0]/switch2n_3v3_0/a_n6524_n498# 8_bit_dac_0/7_bit_dac_0[0]/6_bit_dac_0[0]/5_bit_dac_0[0]/4_bit_dac_0[0]/3_bit_dac_0[0]/2_bit_dac_0[0]/D0 VDDA VDDA sky130_fd_pr__pfet_g5v0d10v5 ad=0.29 pd=2.58 as=0.29 ps=2.58 w=1 l=0.5
X31 8_bit_dac_0/7_bit_dac_0[0]/6_bit_dac_0[0]/5_bit_dac_0[0]/4_bit_dac_0[0]/3_bit_dac_0[0]/2_bit_dac_0[0]/switch2n_3v3_0/VOUTL 8_bit_dac_0/7_bit_dac_0[0]/6_bit_dac_0[0]/5_bit_dac_0[0]/4_bit_dac_0[0]/3_bit_dac_0[0]/2_bit_dac_0[0]/switch2n_3v3_0/a_n6524_n498# 8_bit_dac_0/7_bit_dac_0[0]/6_bit_dac_0[0]/5_bit_dac_0[0]/4_bit_dac_0[0]/3_bit_dac_0[0]/2_bit_dac_0[0]/switch2n_3v3_0/R_L VDDA sky130_fd_pr__pfet_g5v0d10v5 ad=0.29 pd=2.58 as=0.29 ps=2.58 w=1 l=0.5
X32 8_bit_dac_0/7_bit_dac_0[0]/6_bit_dac_0[0]/5_bit_dac_0[0]/4_bit_dac_0[0]/3_bit_dac_0[0]/2_bit_dac_0[1]/VOUT 8_bit_dac_0/7_bit_dac_0[0]/6_bit_dac_0[0]/5_bit_dac_0[0]/4_bit_dac_0[0]/3_bit_dac_0[0]/2_bit_dac_0[0]/D1 8_bit_dac_0/7_bit_dac_0[0]/6_bit_dac_0[0]/5_bit_dac_0[0]/4_bit_dac_0[0]/3_bit_dac_0[0]/2_bit_dac_0[1]/switch2n_3v3_0/VOUTH VSSA sky130_fd_pr__nfet_g5v0d10v5 ad=0.435 pd=4.74 as=0.435 ps=4.74 w=0.5 l=0.5
X33 8_bit_dac_0/7_bit_dac_0[0]/6_bit_dac_0[0]/5_bit_dac_0[0]/4_bit_dac_0[0]/3_bit_dac_0[0]/2_bit_dac_0[1]/switch_n_3v3_v2_0/DX_ 8_bit_dac_0/7_bit_dac_0[0]/6_bit_dac_0[0]/5_bit_dac_0[0]/4_bit_dac_0[0]/3_bit_dac_0[0]/D1 VDDA VDDA sky130_fd_pr__pfet_g5v0d10v5 ad=0.29 pd=2.58 as=126 ps=1.11k w=1 l=0.5
X34 8_bit_dac_0/7_bit_dac_0[0]/6_bit_dac_0[0]/5_bit_dac_0[0]/4_bit_dac_0[0]/3_bit_dac_0[0]/2_bit_dac_0[0]/D1 8_bit_dac_0/7_bit_dac_0[0]/6_bit_dac_0[0]/5_bit_dac_0[0]/4_bit_dac_0[0]/3_bit_dac_0[0]/2_bit_dac_0[1]/switch_n_3v3_v2_0/DX_ VDDA VDDA sky130_fd_pr__pfet_g5v0d10v5 ad=0.29 pd=2.58 as=0 ps=0 w=1 l=0.5
X35 8_bit_dac_0/7_bit_dac_0[0]/6_bit_dac_0[0]/5_bit_dac_0[0]/4_bit_dac_0[0]/3_bit_dac_0[0]/2_bit_dac_0[1]/VOUT 8_bit_dac_0/7_bit_dac_0[0]/6_bit_dac_0[0]/5_bit_dac_0[0]/4_bit_dac_0[0]/3_bit_dac_0[0]/2_bit_dac_0[0]/D1 8_bit_dac_0/7_bit_dac_0[0]/6_bit_dac_0[0]/5_bit_dac_0[0]/4_bit_dac_0[0]/3_bit_dac_0[0]/2_bit_dac_0[1]/switch2n_3v3_0/VOUTL VDDA sky130_fd_pr__pfet_g5v0d10v5 ad=0.87 pd=7.74 as=0.87 ps=7.74 w=1 l=0.5
X36 8_bit_dac_0/7_bit_dac_0[0]/6_bit_dac_0[0]/5_bit_dac_0[0]/4_bit_dac_0[0]/3_bit_dac_0[0]/2_bit_dac_0[1]/switch_n_3v3_v2_0/DX_ 8_bit_dac_0/7_bit_dac_0[0]/6_bit_dac_0[0]/5_bit_dac_0[0]/4_bit_dac_0[0]/3_bit_dac_0[0]/D1 VSSA VSSA sky130_fd_pr__nfet_g5v0d10v5 ad=0.145 pd=1.58 as=63.2 ps=663 w=0.5 l=0.5
X37 8_bit_dac_0/7_bit_dac_0[0]/6_bit_dac_0[0]/5_bit_dac_0[0]/4_bit_dac_0[0]/3_bit_dac_0[0]/2_bit_dac_0[1]/switch2n_3v3_0/VOUTL 8_bit_dac_0/7_bit_dac_0[0]/6_bit_dac_0[0]/5_bit_dac_0[0]/4_bit_dac_0[0]/3_bit_dac_0[0]/2_bit_dac_0[1]/switch_n_3v3_v2_0/DX_ 8_bit_dac_0/7_bit_dac_0[0]/6_bit_dac_0[0]/5_bit_dac_0[0]/4_bit_dac_0[0]/3_bit_dac_0[0]/2_bit_dac_0[1]/VOUT VSSA sky130_fd_pr__nfet_g5v0d10v5 ad=0.435 pd=4.74 as=0 ps=0 w=0.5 l=0.5
X38 8_bit_dac_0/7_bit_dac_0[0]/6_bit_dac_0[0]/5_bit_dac_0[0]/4_bit_dac_0[0]/3_bit_dac_0[0]/2_bit_dac_0[0]/D1 8_bit_dac_0/7_bit_dac_0[0]/6_bit_dac_0[0]/5_bit_dac_0[0]/4_bit_dac_0[0]/3_bit_dac_0[0]/2_bit_dac_0[1]/switch_n_3v3_v2_0/DX_ VSSA VSSA sky130_fd_pr__nfet_g5v0d10v5 ad=0.145 pd=1.58 as=0 ps=0 w=0.5 l=0.5
X39 8_bit_dac_0/7_bit_dac_0[0]/6_bit_dac_0[0]/5_bit_dac_0[0]/4_bit_dac_0[0]/3_bit_dac_0[0]/2_bit_dac_0[1]/switch2n_3v3_0/VOUTH 8_bit_dac_0/7_bit_dac_0[0]/6_bit_dac_0[0]/5_bit_dac_0[0]/4_bit_dac_0[0]/3_bit_dac_0[0]/2_bit_dac_0[1]/switch_n_3v3_v2_0/DX_ 8_bit_dac_0/7_bit_dac_0[0]/6_bit_dac_0[0]/5_bit_dac_0[0]/4_bit_dac_0[0]/3_bit_dac_0[0]/2_bit_dac_0[1]/VOUT VDDA sky130_fd_pr__pfet_g5v0d10v5 ad=0.87 pd=7.74 as=0 ps=0 w=1 l=0.5
X40 8_bit_dac_0/7_bit_dac_0[0]/6_bit_dac_0[0]/5_bit_dac_0[0]/4_bit_dac_0[0]/3_bit_dac_0[0]/2_bit_dac_0[1]/switch2n_3v3_0/VOUTH 8_bit_dac_0/7_bit_dac_0[0]/6_bit_dac_0[0]/5_bit_dac_0[0]/4_bit_dac_0[0]/3_bit_dac_0[0]/2_bit_dac_0[1]/switch2n_3v3_0/a_n6524_n498# 8_bit_dac_0/7_bit_dac_0[0]/6_bit_dac_0[0]/5_bit_dac_0[0]/4_bit_dac_0[0]/3_bit_dac_0[0]/2_bit_dac_0[1]/switch2n_3v3_0/VREFH VDDA sky130_fd_pr__pfet_g5v0d10v5 ad=0 pd=0 as=0.29 ps=2.58 w=1 l=0.5
X41 8_bit_dac_0/7_bit_dac_0[0]/6_bit_dac_0[0]/5_bit_dac_0[0]/4_bit_dac_0[0]/3_bit_dac_0[0]/2_bit_dac_0[1]/switch2n_3v3_0/VREFH 8_bit_dac_0/7_bit_dac_0[0]/6_bit_dac_0[0]/5_bit_dac_0[0]/4_bit_dac_0[0]/3_bit_dac_0[0]/2_bit_dac_0[0]/D0 8_bit_dac_0/7_bit_dac_0[0]/6_bit_dac_0[0]/5_bit_dac_0[0]/4_bit_dac_0[0]/3_bit_dac_0[0]/2_bit_dac_0[1]/switch2n_3v3_0/VOUTH VSSA sky130_fd_pr__nfet_g5v0d10v5 ad=0.578 pd=5.32 as=0 ps=0 w=0.5 l=0.5
X42 8_bit_dac_0/7_bit_dac_0[0]/6_bit_dac_0[0]/5_bit_dac_0[0]/4_bit_dac_0[0]/3_bit_dac_0[0]/2_bit_dac_0[1]/switch2n_3v3_0/VREFH 8_bit_dac_0/7_bit_dac_0[0]/6_bit_dac_0[0]/5_bit_dac_0[0]/4_bit_dac_0[0]/3_bit_dac_0[0]/2_bit_dac_0[1]/switch2n_3v3_0/R_H VSSA sky130_fd_pr__res_generic_nd__hv w=0.42 l=2.1
X43 8_bit_dac_0/7_bit_dac_0[0]/6_bit_dac_0[0]/5_bit_dac_0[0]/4_bit_dac_0[0]/3_bit_dac_0[0]/2_bit_dac_0[0]/D0 8_bit_dac_0/7_bit_dac_0[0]/6_bit_dac_0[0]/5_bit_dac_0[0]/4_bit_dac_0[0]/3_bit_dac_0[0]/2_bit_dac_0[1]/switch2n_3v3_0/a_n6524_n498# VSSA VSSA sky130_fd_pr__nfet_g5v0d10v5 ad=0.145 pd=1.58 as=0 ps=0 w=0.5 l=0.5
X44 8_bit_dac_0/7_bit_dac_0[0]/6_bit_dac_0[0]/5_bit_dac_0[0]/4_bit_dac_0[0]/3_bit_dac_0[1]/VREFH 8_bit_dac_0/7_bit_dac_0[0]/6_bit_dac_0[0]/5_bit_dac_0[0]/4_bit_dac_0[0]/3_bit_dac_0[0]/2_bit_dac_0[0]/D0 8_bit_dac_0/7_bit_dac_0[0]/6_bit_dac_0[0]/5_bit_dac_0[0]/4_bit_dac_0[0]/3_bit_dac_0[0]/2_bit_dac_0[1]/switch2n_3v3_0/VOUTL VDDA sky130_fd_pr__pfet_g5v0d10v5 ad=0.29 pd=2.58 as=0 ps=0 w=1 l=0.5
X45 8_bit_dac_0/7_bit_dac_0[0]/6_bit_dac_0[0]/5_bit_dac_0[0]/4_bit_dac_0[0]/3_bit_dac_0[0]/2_bit_dac_0[1]/switch2n_3v3_0/VREFH 8_bit_dac_0/7_bit_dac_0[0]/6_bit_dac_0[0]/5_bit_dac_0[0]/4_bit_dac_0[0]/3_bit_dac_0[0]/2_bit_dac_0[1]/VREFH VSSA sky130_fd_pr__res_generic_nd__hv w=0.42 l=2.1
X46 8_bit_dac_0/7_bit_dac_0[0]/6_bit_dac_0[0]/5_bit_dac_0[0]/4_bit_dac_0[0]/3_bit_dac_0[0]/2_bit_dac_0[1]/switch2n_3v3_0/a_n6524_n498# 8_bit_dac_0/7_bit_dac_0[0]/6_bit_dac_0[0]/5_bit_dac_0[0]/4_bit_dac_0[0]/3_bit_dac_0[0]/D0 VSSA VSSA sky130_fd_pr__nfet_g5v0d10v5 ad=0.145 pd=1.58 as=0 ps=0 w=0.5 l=0.5
X47 8_bit_dac_0/7_bit_dac_0[0]/6_bit_dac_0[0]/5_bit_dac_0[0]/4_bit_dac_0[0]/3_bit_dac_0[0]/2_bit_dac_0[1]/switch2n_3v3_0/VOUTL 8_bit_dac_0/7_bit_dac_0[0]/6_bit_dac_0[0]/5_bit_dac_0[0]/4_bit_dac_0[0]/3_bit_dac_0[0]/2_bit_dac_0[1]/switch2n_3v3_0/a_n6524_n498# 8_bit_dac_0/7_bit_dac_0[0]/6_bit_dac_0[0]/5_bit_dac_0[0]/4_bit_dac_0[0]/3_bit_dac_0[1]/VREFH VSSA sky130_fd_pr__nfet_g5v0d10v5 ad=0 pd=0 as=0.578 ps=5.32 w=0.5 l=0.5
X48 8_bit_dac_0/7_bit_dac_0[0]/6_bit_dac_0[0]/5_bit_dac_0[0]/4_bit_dac_0[0]/3_bit_dac_0[0]/2_bit_dac_0[1]/switch2n_3v3_0/VOUTH 8_bit_dac_0/7_bit_dac_0[0]/6_bit_dac_0[0]/5_bit_dac_0[0]/4_bit_dac_0[0]/3_bit_dac_0[0]/2_bit_dac_0[1]/switch2n_3v3_0/a_n6524_n498# 8_bit_dac_0/7_bit_dac_0[0]/6_bit_dac_0[0]/5_bit_dac_0[0]/4_bit_dac_0[0]/3_bit_dac_0[0]/2_bit_dac_0[1]/switch2n_3v3_0/R_H VSSA sky130_fd_pr__nfet_g5v0d10v5 ad=0 pd=0 as=0.578 ps=5.32 w=0.5 l=0.5
X49 8_bit_dac_0/7_bit_dac_0[0]/6_bit_dac_0[0]/5_bit_dac_0[0]/4_bit_dac_0[0]/3_bit_dac_0[0]/2_bit_dac_0[1]/switch2n_3v3_0/R_H 8_bit_dac_0/7_bit_dac_0[0]/6_bit_dac_0[0]/5_bit_dac_0[0]/4_bit_dac_0[0]/3_bit_dac_0[0]/2_bit_dac_0[0]/D0 8_bit_dac_0/7_bit_dac_0[0]/6_bit_dac_0[0]/5_bit_dac_0[0]/4_bit_dac_0[0]/3_bit_dac_0[0]/2_bit_dac_0[1]/switch2n_3v3_0/VOUTH VDDA sky130_fd_pr__pfet_g5v0d10v5 ad=0.29 pd=2.58 as=0 ps=0 w=1 l=0.5
X50 8_bit_dac_0/7_bit_dac_0[0]/6_bit_dac_0[0]/5_bit_dac_0[0]/4_bit_dac_0[0]/3_bit_dac_0[0]/2_bit_dac_0[1]/switch2n_3v3_0/R_H 8_bit_dac_0/7_bit_dac_0[0]/6_bit_dac_0[0]/5_bit_dac_0[0]/4_bit_dac_0[0]/3_bit_dac_0[0]/2_bit_dac_0[1]/switch2n_3v3_0/R_L VSSA sky130_fd_pr__res_generic_nd__hv w=0.42 l=2.1
X51 8_bit_dac_0/7_bit_dac_0[0]/6_bit_dac_0[0]/5_bit_dac_0[0]/4_bit_dac_0[0]/3_bit_dac_0[0]/2_bit_dac_0[1]/switch2n_3v3_0/R_L 8_bit_dac_0/7_bit_dac_0[0]/6_bit_dac_0[0]/5_bit_dac_0[0]/4_bit_dac_0[0]/3_bit_dac_0[1]/VREFH VSSA sky130_fd_pr__res_generic_nd__hv w=0.42 l=2.1
X52 8_bit_dac_0/7_bit_dac_0[0]/6_bit_dac_0[0]/5_bit_dac_0[0]/4_bit_dac_0[0]/3_bit_dac_0[0]/2_bit_dac_0[1]/switch2n_3v3_0/R_L 8_bit_dac_0/7_bit_dac_0[0]/6_bit_dac_0[0]/5_bit_dac_0[0]/4_bit_dac_0[0]/3_bit_dac_0[0]/2_bit_dac_0[0]/D0 8_bit_dac_0/7_bit_dac_0[0]/6_bit_dac_0[0]/5_bit_dac_0[0]/4_bit_dac_0[0]/3_bit_dac_0[0]/2_bit_dac_0[1]/switch2n_3v3_0/VOUTL VSSA sky130_fd_pr__nfet_g5v0d10v5 ad=0.578 pd=5.32 as=0 ps=0 w=0.5 l=0.5
X53 8_bit_dac_0/7_bit_dac_0[0]/6_bit_dac_0[0]/5_bit_dac_0[0]/4_bit_dac_0[0]/3_bit_dac_0[0]/2_bit_dac_0[0]/D0 8_bit_dac_0/7_bit_dac_0[0]/6_bit_dac_0[0]/5_bit_dac_0[0]/4_bit_dac_0[0]/3_bit_dac_0[0]/2_bit_dac_0[1]/switch2n_3v3_0/a_n6524_n498# VDDA VDDA sky130_fd_pr__pfet_g5v0d10v5 ad=0.29 pd=2.58 as=0 ps=0 w=1 l=0.5
X54 8_bit_dac_0/7_bit_dac_0[0]/6_bit_dac_0[0]/5_bit_dac_0[0]/4_bit_dac_0[0]/3_bit_dac_0[0]/2_bit_dac_0[1]/switch2n_3v3_0/a_n6524_n498# 8_bit_dac_0/7_bit_dac_0[0]/6_bit_dac_0[0]/5_bit_dac_0[0]/4_bit_dac_0[0]/3_bit_dac_0[0]/D0 VDDA VDDA sky130_fd_pr__pfet_g5v0d10v5 ad=0.29 pd=2.58 as=0 ps=0 w=1 l=0.5
X55 8_bit_dac_0/7_bit_dac_0[0]/6_bit_dac_0[0]/5_bit_dac_0[0]/4_bit_dac_0[0]/3_bit_dac_0[0]/2_bit_dac_0[1]/switch2n_3v3_0/VOUTL 8_bit_dac_0/7_bit_dac_0[0]/6_bit_dac_0[0]/5_bit_dac_0[0]/4_bit_dac_0[0]/3_bit_dac_0[0]/2_bit_dac_0[1]/switch2n_3v3_0/a_n6524_n498# 8_bit_dac_0/7_bit_dac_0[0]/6_bit_dac_0[0]/5_bit_dac_0[0]/4_bit_dac_0[0]/3_bit_dac_0[0]/2_bit_dac_0[1]/switch2n_3v3_0/R_L VDDA sky130_fd_pr__pfet_g5v0d10v5 ad=0 pd=0 as=0.29 ps=2.58 w=1 l=0.5
X56 8_bit_dac_0/7_bit_dac_0[0]/6_bit_dac_0[0]/5_bit_dac_0[0]/4_bit_dac_0[0]/3_bit_dac_0[0]/VOUT 8_bit_dac_0/D2_BUF 8_bit_dac_0/7_bit_dac_0[0]/6_bit_dac_0[0]/5_bit_dac_0[0]/4_bit_dac_0[0]/3_bit_dac_0[0]/2_bit_dac_0[0]/VOUT VSSA sky130_fd_pr__nfet_g5v0d10v5 ad=0.435 pd=4.74 as=0.435 ps=4.74 w=0.5 l=0.5
X57 8_bit_dac_0/7_bit_dac_0[0]/6_bit_dac_0[0]/5_bit_dac_0[0]/4_bit_dac_0[0]/3_bit_dac_0[0]/switch_n_3v3_1/DX_ 8_bit_dac_0/7_bit_dac_0[0]/6_bit_dac_0[0]/5_bit_dac_0[0]/4_bit_dac_0[0]/switch_n_3v3_0/D2 VDDA VDDA sky130_fd_pr__pfet_g5v0d10v5 ad=0.29 pd=2.58 as=0 ps=0 w=1 l=0.5
X58 8_bit_dac_0/D2_BUF 8_bit_dac_0/7_bit_dac_0[0]/6_bit_dac_0[0]/5_bit_dac_0[0]/4_bit_dac_0[0]/3_bit_dac_0[0]/switch_n_3v3_1/DX_ VDDA VDDA sky130_fd_pr__pfet_g5v0d10v5 ad=0.29 pd=2.58 as=0 ps=0 w=1 l=0.5
X59 8_bit_dac_0/7_bit_dac_0[0]/6_bit_dac_0[0]/5_bit_dac_0[0]/4_bit_dac_0[0]/3_bit_dac_0[0]/VOUT 8_bit_dac_0/D2_BUF 8_bit_dac_0/7_bit_dac_0[0]/6_bit_dac_0[0]/5_bit_dac_0[0]/4_bit_dac_0[0]/3_bit_dac_0[0]/2_bit_dac_0[1]/VOUT VDDA sky130_fd_pr__pfet_g5v0d10v5 ad=0.87 pd=7.74 as=0 ps=0 w=1 l=0.5
X60 8_bit_dac_0/7_bit_dac_0[0]/6_bit_dac_0[0]/5_bit_dac_0[0]/4_bit_dac_0[0]/3_bit_dac_0[0]/switch_n_3v3_1/DX_ 8_bit_dac_0/7_bit_dac_0[0]/6_bit_dac_0[0]/5_bit_dac_0[0]/4_bit_dac_0[0]/switch_n_3v3_0/D2 VSSA VSSA sky130_fd_pr__nfet_g5v0d10v5 ad=0.145 pd=1.58 as=0 ps=0 w=0.5 l=0.5
X61 8_bit_dac_0/7_bit_dac_0[0]/6_bit_dac_0[0]/5_bit_dac_0[0]/4_bit_dac_0[0]/3_bit_dac_0[0]/2_bit_dac_0[1]/VOUT 8_bit_dac_0/7_bit_dac_0[0]/6_bit_dac_0[0]/5_bit_dac_0[0]/4_bit_dac_0[0]/3_bit_dac_0[0]/switch_n_3v3_1/DX_ 8_bit_dac_0/7_bit_dac_0[0]/6_bit_dac_0[0]/5_bit_dac_0[0]/4_bit_dac_0[0]/3_bit_dac_0[0]/VOUT VSSA sky130_fd_pr__nfet_g5v0d10v5 ad=0 pd=0 as=0 ps=0 w=0.5 l=0.5
X62 8_bit_dac_0/D2_BUF 8_bit_dac_0/7_bit_dac_0[0]/6_bit_dac_0[0]/5_bit_dac_0[0]/4_bit_dac_0[0]/3_bit_dac_0[0]/switch_n_3v3_1/DX_ VSSA VSSA sky130_fd_pr__nfet_g5v0d10v5 ad=0.145 pd=1.58 as=0 ps=0 w=0.5 l=0.5
X63 8_bit_dac_0/7_bit_dac_0[0]/6_bit_dac_0[0]/5_bit_dac_0[0]/4_bit_dac_0[0]/3_bit_dac_0[0]/2_bit_dac_0[0]/VOUT 8_bit_dac_0/7_bit_dac_0[0]/6_bit_dac_0[0]/5_bit_dac_0[0]/4_bit_dac_0[0]/3_bit_dac_0[0]/switch_n_3v3_1/DX_ 8_bit_dac_0/7_bit_dac_0[0]/6_bit_dac_0[0]/5_bit_dac_0[0]/4_bit_dac_0[0]/3_bit_dac_0[0]/VOUT VDDA sky130_fd_pr__pfet_g5v0d10v5 ad=0.87 pd=7.74 as=0 ps=0 w=1 l=0.5
X64 8_bit_dac_0/7_bit_dac_0[0]/6_bit_dac_0[0]/5_bit_dac_0[0]/4_bit_dac_0[0]/3_bit_dac_0[1]/2_bit_dac_0[0]/VOUT 8_bit_dac_0/7_bit_dac_0[0]/6_bit_dac_0[0]/5_bit_dac_0[0]/4_bit_dac_0[0]/3_bit_dac_0[0]/D1 8_bit_dac_0/7_bit_dac_0[0]/6_bit_dac_0[0]/5_bit_dac_0[0]/4_bit_dac_0[0]/3_bit_dac_0[1]/2_bit_dac_0[0]/switch2n_3v3_0/VOUTH VSSA sky130_fd_pr__nfet_g5v0d10v5 ad=0.435 pd=4.74 as=0.435 ps=4.74 w=0.5 l=0.5
X65 8_bit_dac_0/7_bit_dac_0[0]/6_bit_dac_0[0]/5_bit_dac_0[0]/4_bit_dac_0[0]/3_bit_dac_0[1]/2_bit_dac_0[0]/switch_n_3v3_v2_0/DX_ 8_bit_dac_0/7_bit_dac_0[0]/6_bit_dac_0[0]/5_bit_dac_0[0]/4_bit_dac_0[0]/3_bit_dac_0[1]/2_bit_dac_0[0]/D1 VDDA VDDA sky130_fd_pr__pfet_g5v0d10v5 ad=0.29 pd=2.58 as=0 ps=0 w=1 l=0.5
X66 8_bit_dac_0/7_bit_dac_0[0]/6_bit_dac_0[0]/5_bit_dac_0[0]/4_bit_dac_0[0]/3_bit_dac_0[0]/D1 8_bit_dac_0/7_bit_dac_0[0]/6_bit_dac_0[0]/5_bit_dac_0[0]/4_bit_dac_0[0]/3_bit_dac_0[1]/2_bit_dac_0[0]/switch_n_3v3_v2_0/DX_ VDDA VDDA sky130_fd_pr__pfet_g5v0d10v5 ad=0.29 pd=2.58 as=0 ps=0 w=1 l=0.5
X67 8_bit_dac_0/7_bit_dac_0[0]/6_bit_dac_0[0]/5_bit_dac_0[0]/4_bit_dac_0[0]/3_bit_dac_0[1]/2_bit_dac_0[0]/VOUT 8_bit_dac_0/7_bit_dac_0[0]/6_bit_dac_0[0]/5_bit_dac_0[0]/4_bit_dac_0[0]/3_bit_dac_0[0]/D1 8_bit_dac_0/7_bit_dac_0[0]/6_bit_dac_0[0]/5_bit_dac_0[0]/4_bit_dac_0[0]/3_bit_dac_0[1]/2_bit_dac_0[0]/switch2n_3v3_0/VOUTL VDDA sky130_fd_pr__pfet_g5v0d10v5 ad=0.87 pd=7.74 as=0.87 ps=7.74 w=1 l=0.5
X68 8_bit_dac_0/7_bit_dac_0[0]/6_bit_dac_0[0]/5_bit_dac_0[0]/4_bit_dac_0[0]/3_bit_dac_0[1]/2_bit_dac_0[0]/switch_n_3v3_v2_0/DX_ 8_bit_dac_0/7_bit_dac_0[0]/6_bit_dac_0[0]/5_bit_dac_0[0]/4_bit_dac_0[0]/3_bit_dac_0[1]/2_bit_dac_0[0]/D1 VSSA VSSA sky130_fd_pr__nfet_g5v0d10v5 ad=0.145 pd=1.58 as=0 ps=0 w=0.5 l=0.5
X69 8_bit_dac_0/7_bit_dac_0[0]/6_bit_dac_0[0]/5_bit_dac_0[0]/4_bit_dac_0[0]/3_bit_dac_0[1]/2_bit_dac_0[0]/switch2n_3v3_0/VOUTL 8_bit_dac_0/7_bit_dac_0[0]/6_bit_dac_0[0]/5_bit_dac_0[0]/4_bit_dac_0[0]/3_bit_dac_0[1]/2_bit_dac_0[0]/switch_n_3v3_v2_0/DX_ 8_bit_dac_0/7_bit_dac_0[0]/6_bit_dac_0[0]/5_bit_dac_0[0]/4_bit_dac_0[0]/3_bit_dac_0[1]/2_bit_dac_0[0]/VOUT VSSA sky130_fd_pr__nfet_g5v0d10v5 ad=0.435 pd=4.74 as=0 ps=0 w=0.5 l=0.5
X70 8_bit_dac_0/7_bit_dac_0[0]/6_bit_dac_0[0]/5_bit_dac_0[0]/4_bit_dac_0[0]/3_bit_dac_0[0]/D1 8_bit_dac_0/7_bit_dac_0[0]/6_bit_dac_0[0]/5_bit_dac_0[0]/4_bit_dac_0[0]/3_bit_dac_0[1]/2_bit_dac_0[0]/switch_n_3v3_v2_0/DX_ VSSA VSSA sky130_fd_pr__nfet_g5v0d10v5 ad=0.145 pd=1.58 as=0 ps=0 w=0.5 l=0.5
X71 8_bit_dac_0/7_bit_dac_0[0]/6_bit_dac_0[0]/5_bit_dac_0[0]/4_bit_dac_0[0]/3_bit_dac_0[1]/2_bit_dac_0[0]/switch2n_3v3_0/VOUTH 8_bit_dac_0/7_bit_dac_0[0]/6_bit_dac_0[0]/5_bit_dac_0[0]/4_bit_dac_0[0]/3_bit_dac_0[1]/2_bit_dac_0[0]/switch_n_3v3_v2_0/DX_ 8_bit_dac_0/7_bit_dac_0[0]/6_bit_dac_0[0]/5_bit_dac_0[0]/4_bit_dac_0[0]/3_bit_dac_0[1]/2_bit_dac_0[0]/VOUT VDDA sky130_fd_pr__pfet_g5v0d10v5 ad=0.87 pd=7.74 as=0 ps=0 w=1 l=0.5
X72 8_bit_dac_0/7_bit_dac_0[0]/6_bit_dac_0[0]/5_bit_dac_0[0]/4_bit_dac_0[0]/3_bit_dac_0[1]/2_bit_dac_0[0]/switch2n_3v3_0/VOUTH 8_bit_dac_0/7_bit_dac_0[0]/6_bit_dac_0[0]/5_bit_dac_0[0]/4_bit_dac_0[0]/3_bit_dac_0[1]/2_bit_dac_0[0]/switch2n_3v3_0/a_n6524_n498# 8_bit_dac_0/7_bit_dac_0[0]/6_bit_dac_0[0]/5_bit_dac_0[0]/4_bit_dac_0[0]/3_bit_dac_0[1]/2_bit_dac_0[0]/switch2n_3v3_0/VREFH VDDA sky130_fd_pr__pfet_g5v0d10v5 ad=0 pd=0 as=0.29 ps=2.58 w=1 l=0.5
X73 8_bit_dac_0/7_bit_dac_0[0]/6_bit_dac_0[0]/5_bit_dac_0[0]/4_bit_dac_0[0]/3_bit_dac_0[1]/2_bit_dac_0[0]/switch2n_3v3_0/VREFH 8_bit_dac_0/7_bit_dac_0[0]/6_bit_dac_0[0]/5_bit_dac_0[0]/4_bit_dac_0[0]/3_bit_dac_0[0]/D0 8_bit_dac_0/7_bit_dac_0[0]/6_bit_dac_0[0]/5_bit_dac_0[0]/4_bit_dac_0[0]/3_bit_dac_0[1]/2_bit_dac_0[0]/switch2n_3v3_0/VOUTH VSSA sky130_fd_pr__nfet_g5v0d10v5 ad=0.578 pd=5.32 as=0 ps=0 w=0.5 l=0.5
X74 8_bit_dac_0/7_bit_dac_0[0]/6_bit_dac_0[0]/5_bit_dac_0[0]/4_bit_dac_0[0]/3_bit_dac_0[1]/2_bit_dac_0[0]/switch2n_3v3_0/VREFH 8_bit_dac_0/7_bit_dac_0[0]/6_bit_dac_0[0]/5_bit_dac_0[0]/4_bit_dac_0[0]/3_bit_dac_0[1]/2_bit_dac_0[0]/switch2n_3v3_0/R_H VSSA sky130_fd_pr__res_generic_nd__hv w=0.42 l=2.1
X75 8_bit_dac_0/7_bit_dac_0[0]/6_bit_dac_0[0]/5_bit_dac_0[0]/4_bit_dac_0[0]/3_bit_dac_0[0]/D0 8_bit_dac_0/7_bit_dac_0[0]/6_bit_dac_0[0]/5_bit_dac_0[0]/4_bit_dac_0[0]/3_bit_dac_0[1]/2_bit_dac_0[0]/switch2n_3v3_0/a_n6524_n498# VSSA VSSA sky130_fd_pr__nfet_g5v0d10v5 ad=0.145 pd=1.58 as=0 ps=0 w=0.5 l=0.5
X76 8_bit_dac_0/7_bit_dac_0[0]/6_bit_dac_0[0]/5_bit_dac_0[0]/4_bit_dac_0[0]/3_bit_dac_0[1]/2_bit_dac_0[1]/VREFH 8_bit_dac_0/7_bit_dac_0[0]/6_bit_dac_0[0]/5_bit_dac_0[0]/4_bit_dac_0[0]/3_bit_dac_0[0]/D0 8_bit_dac_0/7_bit_dac_0[0]/6_bit_dac_0[0]/5_bit_dac_0[0]/4_bit_dac_0[0]/3_bit_dac_0[1]/2_bit_dac_0[0]/switch2n_3v3_0/VOUTL VDDA sky130_fd_pr__pfet_g5v0d10v5 ad=0.29 pd=2.58 as=0 ps=0 w=1 l=0.5
X77 8_bit_dac_0/7_bit_dac_0[0]/6_bit_dac_0[0]/5_bit_dac_0[0]/4_bit_dac_0[0]/3_bit_dac_0[1]/2_bit_dac_0[0]/switch2n_3v3_0/VREFH 8_bit_dac_0/7_bit_dac_0[0]/6_bit_dac_0[0]/5_bit_dac_0[0]/4_bit_dac_0[0]/3_bit_dac_0[1]/VREFH VSSA sky130_fd_pr__res_generic_nd__hv w=0.42 l=2.1
X78 8_bit_dac_0/7_bit_dac_0[0]/6_bit_dac_0[0]/5_bit_dac_0[0]/4_bit_dac_0[0]/3_bit_dac_0[1]/2_bit_dac_0[0]/switch2n_3v3_0/a_n6524_n498# 8_bit_dac_0/7_bit_dac_0[0]/6_bit_dac_0[0]/5_bit_dac_0[0]/4_bit_dac_0[0]/3_bit_dac_0[1]/2_bit_dac_0[0]/D0 VSSA VSSA sky130_fd_pr__nfet_g5v0d10v5 ad=0.145 pd=1.58 as=0 ps=0 w=0.5 l=0.5
X79 8_bit_dac_0/7_bit_dac_0[0]/6_bit_dac_0[0]/5_bit_dac_0[0]/4_bit_dac_0[0]/3_bit_dac_0[1]/2_bit_dac_0[0]/switch2n_3v3_0/VOUTL 8_bit_dac_0/7_bit_dac_0[0]/6_bit_dac_0[0]/5_bit_dac_0[0]/4_bit_dac_0[0]/3_bit_dac_0[1]/2_bit_dac_0[0]/switch2n_3v3_0/a_n6524_n498# 8_bit_dac_0/7_bit_dac_0[0]/6_bit_dac_0[0]/5_bit_dac_0[0]/4_bit_dac_0[0]/3_bit_dac_0[1]/2_bit_dac_0[1]/VREFH VSSA sky130_fd_pr__nfet_g5v0d10v5 ad=0 pd=0 as=0.578 ps=5.32 w=0.5 l=0.5
X80 8_bit_dac_0/7_bit_dac_0[0]/6_bit_dac_0[0]/5_bit_dac_0[0]/4_bit_dac_0[0]/3_bit_dac_0[1]/2_bit_dac_0[0]/switch2n_3v3_0/VOUTH 8_bit_dac_0/7_bit_dac_0[0]/6_bit_dac_0[0]/5_bit_dac_0[0]/4_bit_dac_0[0]/3_bit_dac_0[1]/2_bit_dac_0[0]/switch2n_3v3_0/a_n6524_n498# 8_bit_dac_0/7_bit_dac_0[0]/6_bit_dac_0[0]/5_bit_dac_0[0]/4_bit_dac_0[0]/3_bit_dac_0[1]/2_bit_dac_0[0]/switch2n_3v3_0/R_H VSSA sky130_fd_pr__nfet_g5v0d10v5 ad=0 pd=0 as=0.578 ps=5.32 w=0.5 l=0.5
X81 8_bit_dac_0/7_bit_dac_0[0]/6_bit_dac_0[0]/5_bit_dac_0[0]/4_bit_dac_0[0]/3_bit_dac_0[1]/2_bit_dac_0[0]/switch2n_3v3_0/R_H 8_bit_dac_0/7_bit_dac_0[0]/6_bit_dac_0[0]/5_bit_dac_0[0]/4_bit_dac_0[0]/3_bit_dac_0[0]/D0 8_bit_dac_0/7_bit_dac_0[0]/6_bit_dac_0[0]/5_bit_dac_0[0]/4_bit_dac_0[0]/3_bit_dac_0[1]/2_bit_dac_0[0]/switch2n_3v3_0/VOUTH VDDA sky130_fd_pr__pfet_g5v0d10v5 ad=0.29 pd=2.58 as=0 ps=0 w=1 l=0.5
X82 8_bit_dac_0/7_bit_dac_0[0]/6_bit_dac_0[0]/5_bit_dac_0[0]/4_bit_dac_0[0]/3_bit_dac_0[1]/2_bit_dac_0[0]/switch2n_3v3_0/R_H 8_bit_dac_0/7_bit_dac_0[0]/6_bit_dac_0[0]/5_bit_dac_0[0]/4_bit_dac_0[0]/3_bit_dac_0[1]/2_bit_dac_0[0]/switch2n_3v3_0/R_L VSSA sky130_fd_pr__res_generic_nd__hv w=0.42 l=2.1
X83 8_bit_dac_0/7_bit_dac_0[0]/6_bit_dac_0[0]/5_bit_dac_0[0]/4_bit_dac_0[0]/3_bit_dac_0[1]/2_bit_dac_0[0]/switch2n_3v3_0/R_L 8_bit_dac_0/7_bit_dac_0[0]/6_bit_dac_0[0]/5_bit_dac_0[0]/4_bit_dac_0[0]/3_bit_dac_0[1]/2_bit_dac_0[1]/VREFH VSSA sky130_fd_pr__res_generic_nd__hv w=0.42 l=2.1
X84 8_bit_dac_0/7_bit_dac_0[0]/6_bit_dac_0[0]/5_bit_dac_0[0]/4_bit_dac_0[0]/3_bit_dac_0[1]/2_bit_dac_0[0]/switch2n_3v3_0/R_L 8_bit_dac_0/7_bit_dac_0[0]/6_bit_dac_0[0]/5_bit_dac_0[0]/4_bit_dac_0[0]/3_bit_dac_0[0]/D0 8_bit_dac_0/7_bit_dac_0[0]/6_bit_dac_0[0]/5_bit_dac_0[0]/4_bit_dac_0[0]/3_bit_dac_0[1]/2_bit_dac_0[0]/switch2n_3v3_0/VOUTL VSSA sky130_fd_pr__nfet_g5v0d10v5 ad=0.578 pd=5.32 as=0 ps=0 w=0.5 l=0.5
X85 8_bit_dac_0/7_bit_dac_0[0]/6_bit_dac_0[0]/5_bit_dac_0[0]/4_bit_dac_0[0]/3_bit_dac_0[0]/D0 8_bit_dac_0/7_bit_dac_0[0]/6_bit_dac_0[0]/5_bit_dac_0[0]/4_bit_dac_0[0]/3_bit_dac_0[1]/2_bit_dac_0[0]/switch2n_3v3_0/a_n6524_n498# VDDA VDDA sky130_fd_pr__pfet_g5v0d10v5 ad=0.29 pd=2.58 as=0 ps=0 w=1 l=0.5
X86 8_bit_dac_0/7_bit_dac_0[0]/6_bit_dac_0[0]/5_bit_dac_0[0]/4_bit_dac_0[0]/3_bit_dac_0[1]/2_bit_dac_0[0]/switch2n_3v3_0/a_n6524_n498# 8_bit_dac_0/7_bit_dac_0[0]/6_bit_dac_0[0]/5_bit_dac_0[0]/4_bit_dac_0[0]/3_bit_dac_0[1]/2_bit_dac_0[0]/D0 VDDA VDDA sky130_fd_pr__pfet_g5v0d10v5 ad=0.29 pd=2.58 as=0 ps=0 w=1 l=0.5
X87 8_bit_dac_0/7_bit_dac_0[0]/6_bit_dac_0[0]/5_bit_dac_0[0]/4_bit_dac_0[0]/3_bit_dac_0[1]/2_bit_dac_0[0]/switch2n_3v3_0/VOUTL 8_bit_dac_0/7_bit_dac_0[0]/6_bit_dac_0[0]/5_bit_dac_0[0]/4_bit_dac_0[0]/3_bit_dac_0[1]/2_bit_dac_0[0]/switch2n_3v3_0/a_n6524_n498# 8_bit_dac_0/7_bit_dac_0[0]/6_bit_dac_0[0]/5_bit_dac_0[0]/4_bit_dac_0[0]/3_bit_dac_0[1]/2_bit_dac_0[0]/switch2n_3v3_0/R_L VDDA sky130_fd_pr__pfet_g5v0d10v5 ad=0 pd=0 as=0.29 ps=2.58 w=1 l=0.5
X88 8_bit_dac_0/7_bit_dac_0[0]/6_bit_dac_0[0]/5_bit_dac_0[0]/4_bit_dac_0[0]/3_bit_dac_0[1]/2_bit_dac_0[1]/VOUT 8_bit_dac_0/7_bit_dac_0[0]/6_bit_dac_0[0]/5_bit_dac_0[0]/4_bit_dac_0[0]/3_bit_dac_0[1]/2_bit_dac_0[0]/D1 8_bit_dac_0/7_bit_dac_0[0]/6_bit_dac_0[0]/5_bit_dac_0[0]/4_bit_dac_0[0]/3_bit_dac_0[1]/2_bit_dac_0[1]/switch2n_3v3_0/VOUTH VSSA sky130_fd_pr__nfet_g5v0d10v5 ad=0.435 pd=4.74 as=0.435 ps=4.74 w=0.5 l=0.5